<?xml version="1.0" encoding="UTF-8"?>

<!-- generated on Mon Jul 29 16:27:37 2019 by Eclipse SUMO netedit Version 1.2.0
<configuration xmlns:xsi="http://www.w3.org/2001/XMLSchema-instance" xsi:noNamespaceSchemaLocation="http://sumo.dlr.de/xsd/netconvertConfiguration.xsd">

    <input>
        <sumo-net-file value="/Users/cxx/Desktop/SUMO/map/ramp1/map.net.xml"/>
    </input>

    <output>
        <output-file value="/Users/cxx/Desktop/SUMO/map/ramp1/map.net.xml"/>
    </output>

    <processing>
        <geometry.max-grade.fix value="false"/>
        <offset.disable-normalization value="true"/>
        <lefthand value="false"/>
    </processing>

    <junctions>
        <no-turnarounds value="true"/>
        <junctions.corner-detail value="5"/>
        <junctions.limit-turn-speed value="5.5"/>
        <rectangular-lane-cut value="false"/>
    </junctions>

    <pedestrian>
        <walkingareas value="false"/>
    </pedestrian>

    <netedit>
        <route-files value="/Users/cxx/Desktop/SUMO/map/ramp1/map.rou.xml"/>
    </netedit>

</configuration>
-->

<routes xmlns:xsi="http://www.w3.org/2001/XMLSchema-instance" xsi:noNamespaceSchemaLocation="http://sumo.dlr.de/xsd/routes_file.xsd">
    <vType id="car" guiShape="passenger" speedFactor="normc(1,0.1,0.2,2)" carFollowModel="IDM"/>
    <route id="merge" edges="highway1 ramp" color="blue"/>
    <flow id="flow_0" type="car" color='0, 1, 0' route="merge" departLane="1" departSpeed="max" probability="0.2"/>
</routes>
