<?xml version="1.0" encoding="UTF-8"?>

<!-- generated on Mon Jul 22 19:53:12 2019 by Eclipse SUMO netedit Version 1.2.0
<configuration xmlns:xsi="http://www.w3.org/2001/XMLSchema-instance" xsi:noNamespaceSchemaLocation="http://sumo.dlr.de/xsd/netconvertConfiguration.xsd">

    <input>
        <sumo-net-file value="/Users/cxx/Desktop/SUMO/map2/xing.net.xml"/>
    </input>

    <output>
        <output-file value="/Users/cxx/Desktop/SUMO/map2/xing.net.xml"/>
    </output>

    <processing>
        <geometry.max-grade.fix value="false"/>
        <offset.disable-normalization value="true"/>
        <lefthand value="false"/>
    </processing>

    <junctions>
        <no-internal-links value="false"/>
        <no-turnarounds value="true"/>
        <junctions.corner-detail value="5"/>
        <junctions.limit-turn-speed value="5.5"/>
        <rectangular-lane-cut value="false"/>
    </junctions>

    <pedestrian>
        <walkingareas value="false"/>
    </pedestrian>

</configuration>
-->

<net version="1.1" junctionCornerDetail="5" limitTurnSpeed="5.50" xmlns:xsi="http://www.w3.org/2001/XMLSchema-instance" xsi:noNamespaceSchemaLocation="http://sumo.dlr.de/xsd/net_file.xsd">

    <location netOffset="0.00,0.00" convBoundary="0.00,0.00,100.00,0.00" origBoundary="-10000000000.00,-10000000000.00,10000000000.00,10000000000.00" projParameter="!"/>

    <edge id=":gneJ0_w0" function="walkingarea">
        <lane id=":gneJ0_w0_0" index="0" allow="pedestrian" speed="1.00" length="7.90" width="1.50" shape="0.00,-3.20 0.00,-4.70 0.00,4.70 0.00,3.20"/>
    </edge>
    <edge id=":gneJ2_w0" function="walkingarea">
        <lane id=":gneJ2_w0_0" index="0" allow="pedestrian" speed="1.00" length="7.90" width="1.50" shape="100.00,3.20 100.00,4.70 100.00,-4.70 100.00,-3.20"/>
    </edge>
    <edge id=":xing_0" function="internal">
        <lane id=":xing_0_0" index="0" disallow="pedestrian" speed="13.89" length="5.00" shape="52.50,1.60 47.50,1.60"/>
    </edge>
    <edge id=":xing_1" function="internal">
        <lane id=":xing_1_0" index="0" disallow="pedestrian" speed="13.89" length="5.00" shape="47.50,-1.60 52.50,-1.60"/>
    </edge>
    <edge id=":xing_c0" function="crossing" crossingEdges="right1 right2">
        <lane id=":xing_c0_0" index="0" allow="pedestrian" speed="1.00" length="6.40" width="2.00" shape="51.50,-3.20 51.50,3.20"/>
    </edge>
    <edge id=":xing_c1" function="crossing" crossingEdges="left2 left1">
        <lane id=":xing_c1_0" index="0" allow="pedestrian" speed="1.00" length="6.40" width="2.00" shape="48.50,3.20 48.50,-3.20"/>
    </edge>
    <edge id=":xing_w0" function="walkingarea">
        <lane id=":xing_w0_0" index="0" allow="pedestrian" speed="1.00" length="3.11" width="2.00" shape="49.50,3.20 47.50,3.20 47.50,4.70 52.50,4.70 52.50,3.20 50.50,3.20"/>
    </edge>
    <edge id=":xing_w1" function="walkingarea">
        <lane id=":xing_w1_0" index="0" allow="pedestrian" speed="1.00" length="3.11" width="2.00" shape="50.50,-3.20 52.50,-3.20 52.50,-4.70 47.50,-4.70 47.50,-3.20 49.50,-3.20"/>
    </edge>

    <edge id="left1" from="gneJ0" to="xing" priority="-1">
        <lane id="left1_0" index="0" allow="pedestrian" speed="13.89" length="47.50" width="1.50" shape="0.00,-3.95 47.50,-3.95"/>
        <lane id="left1_1" index="1" disallow="pedestrian" speed="13.89" length="47.50" shape="0.00,-1.60 47.50,-1.60"/>
    </edge>
    <edge id="left2" from="xing" to="gneJ0" priority="-1">
        <lane id="left2_0" index="0" allow="pedestrian" speed="13.89" length="47.50" width="1.50" shape="47.50,3.95 0.00,3.95"/>
        <lane id="left2_1" index="1" disallow="pedestrian" speed="13.89" length="47.50" shape="47.50,1.60 0.00,1.60"/>
    </edge>
    <edge id="right1" from="xing" to="gneJ2" priority="-1">
        <lane id="right1_0" index="0" allow="pedestrian" speed="13.89" length="47.50" width="1.50" shape="52.50,-3.95 100.00,-3.95"/>
        <lane id="right1_1" index="1" disallow="pedestrian" speed="13.89" length="47.50" shape="52.50,-1.60 100.00,-1.60"/>
    </edge>
    <edge id="right2" from="gneJ2" to="xing" priority="-1">
        <lane id="right2_0" index="0" allow="pedestrian" speed="13.89" length="47.50" width="1.50" shape="100.00,3.95 52.50,3.95"/>
        <lane id="right2_1" index="1" disallow="pedestrian" speed="13.89" length="47.50" shape="100.00,1.60 52.50,1.60"/>
    </edge>

    <junction id="gneJ0" type="dead_end" x="0.00" y="0.00" incLanes="left2_0 left2_1" intLanes="" shape="0.00,0.00 0.00,4.70 0.00,0.00"/>
    <junction id="gneJ2" type="dead_end" x="100.00" y="0.00" incLanes="right1_0 right1_1" intLanes="" shape="100.00,0.00 100.00,-4.70 100.00,0.00"/>
    <junction id="xing" type="priority_stop" x="50.00" y="0.00" incLanes="right2_0 right2_1 left1_0 left1_1 :xing_w1_0 :xing_w0_0" intLanes=":xing_0_0 :xing_1_0 :xing_c0_0 :xing_c1_0" shape="47.50,4.00 52.50,4.00 52.50,-4.00 47.50,-4.00" customShape="1">
        <request index="0" response="0000" foes="1100" cont="0"/>
        <request index="1" response="0000" foes="1100" cont="0"/>
        <request index="2" response="0011" foes="0011" cont="0"/>
        <request index="3" response="0011" foes="0011" cont="0"/>
    </junction>

    <connection from="left1" to="right1" fromLane="1" toLane="1" keepClear="0" via=":xing_1_0" dir="s" state="M"/>
    <connection from="right2" to="left2" fromLane="1" toLane="1" keepClear="0" via=":xing_0_0" dir="s" state="M"/>

    <connection from=":xing_0" to="left2" fromLane="0" toLane="1" dir="s" state="M"/>
    <connection from=":xing_1" to="right1" fromLane="0" toLane="1" dir="s" state="M"/>

    <connection from=":gneJ0_w0" to="left1" fromLane="0" toLane="0" dir="s" state="M"/>
    <connection from="left2" to=":gneJ0_w0" fromLane="0" toLane="0" dir="s" state="M"/>
    <connection from=":gneJ2_w0" to="right2" fromLane="0" toLane="0" dir="s" state="M"/>
    <connection from="right1" to=":gneJ2_w0" fromLane="0" toLane="0" dir="s" state="M"/>
    <connection from=":xing_c0" to=":xing_w0" fromLane="0" toLane="0" dir="s" state="M"/>
    <connection from=":xing_c1" to=":xing_w1" fromLane="0" toLane="0" dir="s" state="M"/>
    <connection from=":xing_w0" to=":xing_c1" fromLane="0" toLane="0" dir="s" state="m"/>
    <connection from=":xing_w0" to="left2" fromLane="0" toLane="0" dir="s" state="M"/>
    <connection from="right2" to=":xing_w0" fromLane="0" toLane="0" dir="s" state="M"/>
    <connection from=":xing_w1" to=":xing_c0" fromLane="0" toLane="0" dir="s" state="m"/>
    <connection from=":xing_w1" to="right1" fromLane="0" toLane="0" dir="s" state="M"/>
    <connection from="left1" to=":xing_w1" fromLane="0" toLane="0" dir="s" state="M"/>
</net>
