<?xml version="1.0" encoding="UTF-8"?>

<!-- generated on Tue Jul 30 09:59:41 2019 by Eclipse SUMO netconvert Version 1.2.0
<configuration xmlns:xsi="http://www.w3.org/2001/XMLSchema-instance" xsi:noNamespaceSchemaLocation="http://sumo.dlr.de/xsd/netconvertConfiguration.xsd">

    <input>
        <osm-files value="map.osm.xml"/>
    </input>

    <output>
        <output-file value="map.net.xml"/>
    </output>

    <projection>
        <proj.utm value="true"/>
    </projection>

</configuration>
-->

<net version="1.1" junctionCornerDetail="5" limitTurnSpeed="5.50" xmlns:xsi="http://www.w3.org/2001/XMLSchema-instance" xsi:noNamespaceSchemaLocation="http://sumo.dlr.de/xsd/net_file.xsd">

    <location netOffset="-555623.97,-4195904.82" convBoundary="0.00,0.00,4063.25,2429.10" origBoundary="-122.367082,37.908721,-122.321015,37.930770" projParameter="+proj=utm +zone=10 +ellps=WGS84 +datum=WGS84 +units=m +no_defs"/>

    <type id="highway.bridleway" priority="1" numLanes="1" speed="2.78" allow="pedestrian" oneway="1" width="2.00"/>
    <type id="highway.bus_guideway" priority="1" numLanes="1" speed="27.78" allow="bus" oneway="1"/>
    <type id="highway.cycleway" priority="1" numLanes="1" speed="8.33" allow="bicycle" oneway="0" width="1.00"/>
    <type id="highway.footway" priority="1" numLanes="1" speed="2.78" allow="pedestrian" oneway="1" width="2.00"/>
    <type id="highway.ford" priority="1" numLanes="1" speed="2.78" allow="army" oneway="0"/>
    <type id="highway.living_street" priority="2" numLanes="1" speed="2.78" disallow="tram rail_urban rail rail_electric ship" oneway="0"/>
    <type id="highway.motorway" priority="14" numLanes="2" speed="39.44" allow="private emergency authority army vip passenger hov taxi bus coach delivery truck trailer motorcycle evehicle custom1 custom2" oneway="1"/>
    <type id="highway.motorway_link" priority="9" numLanes="1" speed="22.22" allow="private emergency authority army vip passenger hov taxi bus coach delivery truck trailer motorcycle evehicle custom1 custom2" oneway="1"/>
    <type id="highway.path" priority="1" numLanes="1" speed="2.78" allow="bicycle pedestrian" oneway="1" width="2.00"/>
    <type id="highway.pedestrian" priority="1" numLanes="1" speed="2.78" allow="pedestrian" oneway="1" width="2.00"/>
    <type id="highway.primary" priority="12" numLanes="2" speed="27.78" disallow="tram rail_urban rail rail_electric ship" oneway="0"/>
    <type id="highway.primary_link" priority="7" numLanes="1" speed="22.22" disallow="tram rail_urban rail rail_electric ship" oneway="0"/>
    <type id="highway.raceway" priority="15" numLanes="2" speed="83.33" allow="vip" oneway="0"/>
    <type id="highway.residential" priority="3" numLanes="1" speed="13.89" disallow="tram rail_urban rail rail_electric ship" oneway="0"/>
    <type id="highway.secondary" priority="11" numLanes="2" speed="27.78" disallow="tram rail_urban rail rail_electric ship" oneway="0"/>
    <type id="highway.secondary_link" priority="6" numLanes="1" speed="22.22" disallow="tram rail_urban rail rail_electric ship" oneway="0"/>
    <type id="highway.service" priority="1" numLanes="1" speed="5.56" allow="delivery bicycle pedestrian" oneway="0"/>
    <type id="highway.stairs" priority="1" numLanes="1" speed="1.39" allow="pedestrian" oneway="1" width="2.00"/>
    <type id="highway.step" priority="1" numLanes="1" speed="1.39" allow="pedestrian" oneway="1" width="2.00"/>
    <type id="highway.steps" priority="1" numLanes="1" speed="1.39" allow="pedestrian" oneway="1" width="2.00"/>
    <type id="highway.tertiary" priority="10" numLanes="1" speed="22.22" disallow="tram rail_urban rail rail_electric ship" oneway="0"/>
    <type id="highway.tertiary_link" priority="5" numLanes="1" speed="22.22" disallow="tram rail_urban rail rail_electric ship" oneway="0"/>
    <type id="highway.track" priority="1" numLanes="1" speed="5.56" disallow="tram rail_urban rail rail_electric ship" oneway="0"/>
    <type id="highway.trunk" priority="13" numLanes="2" speed="27.78" disallow="tram rail_urban rail rail_electric bicycle pedestrian ship" oneway="0"/>
    <type id="highway.trunk_link" priority="8" numLanes="1" speed="22.22" disallow="tram rail_urban rail rail_electric bicycle pedestrian ship" oneway="0"/>
    <type id="highway.unclassified" priority="4" numLanes="1" speed="13.89" disallow="tram rail_urban rail rail_electric ship" oneway="0"/>
    <type id="highway.unsurfaced" priority="1" numLanes="1" speed="8.33" disallow="tram rail_urban rail rail_electric ship" oneway="0"/>
    <type id="railway.light_rail" priority="19" numLanes="1" speed="27.78" allow="rail_urban" oneway="1"/>
    <type id="railway.preserved" priority="16" numLanes="1" speed="27.78" allow="rail" oneway="1"/>
    <type id="railway.rail" priority="20" numLanes="1" speed="83.33" allow="rail rail_electric" oneway="1"/>
    <type id="railway.subway" priority="18" numLanes="1" speed="27.78" allow="rail_urban" oneway="1"/>
    <type id="railway.tram" priority="17" numLanes="1" speed="13.89" allow="tram" oneway="1"/>

    <edge id=":2173886222_0" function="internal">
        <lane id=":2173886222_0_0" index="0" allow="delivery bicycle pedestrian" speed="5.07" length="5.03" shape="1500.83,1518.38 1499.48,1518.59 1498.52,1519.18 1497.94,1520.17 1497.74,1521.54"/>
    </edge>
    <edge id=":2173886222_1" function="internal">
        <lane id=":2173886222_1_0" index="0" disallow="tram rail_urban rail rail_electric ship" speed="13.89" length="9.40" shape="1500.83,1518.38 1491.43,1518.44"/>
    </edge>
    <edge id=":2173886222_2" function="internal">
        <lane id=":2173886222_2_0" index="0" disallow="tram rail_urban rail rail_electric ship" speed="3.65" length="2.34" shape="1500.83,1518.38 1499.63,1517.59 1499.22,1516.79"/>
    </edge>
    <edge id=":2173886222_9" function="internal">
        <lane id=":2173886222_9_0" index="0" disallow="tram rail_urban rail rail_electric ship" speed="3.65" length="2.34" shape="1499.22,1516.79 1499.62,1515.99 1500.82,1515.18"/>
    </edge>
    <edge id=":2173886222_3" function="internal">
        <lane id=":2173886222_3_0" index="0" disallow="tram rail_urban rail rail_electric ship" speed="13.89" length="9.40" shape="1491.42,1515.24 1500.82,1515.18"/>
    </edge>
    <edge id=":2173886222_4" function="internal">
        <lane id=":2173886222_4_0" index="0" allow="delivery bicycle pedestrian" speed="6.85" length="5.10" shape="1491.42,1515.24 1494.19,1515.62 1496.17,1516.79"/>
    </edge>
    <edge id=":2173886222_5" function="internal">
        <lane id=":2173886222_5_0" index="0" disallow="tram rail_urban rail rail_electric ship" speed="3.65" length="2.34" shape="1491.42,1515.24 1492.62,1516.03 1493.03,1516.83"/>
    </edge>
    <edge id=":2173886222_10" function="internal">
        <lane id=":2173886222_10_0" index="0" allow="delivery bicycle pedestrian" speed="6.85" length="5.10" shape="1496.17,1516.79 1497.35,1518.77 1497.74,1521.54"/>
    </edge>
    <edge id=":2173886222_11" function="internal">
        <lane id=":2173886222_11_0" index="0" disallow="tram rail_urban rail rail_electric ship" speed="3.65" length="2.34" shape="1493.03,1516.83 1492.63,1517.63 1491.43,1518.44"/>
    </edge>
    <edge id=":2173886222_6" function="internal">
        <lane id=":2173886222_6_0" index="0" disallow="tram rail_urban rail rail_electric ship" speed="5.03" length="5.01" shape="1494.54,1521.53 1494.35,1520.17 1493.77,1519.20 1492.80,1518.62 1491.43,1518.44"/>
    </edge>
    <edge id=":2173886222_7" function="internal">
        <lane id=":2173886222_7_0" index="0" disallow="tram rail_urban rail rail_electric ship" speed="6.88" length="10.16" shape="1494.54,1521.53 1494.94,1518.77 1496.12,1516.79 1498.08,1515.59 1500.82,1515.18"/>
    </edge>
    <edge id=":2173886222_8" function="internal">
        <lane id=":2173886222_8_0" index="0" allow="delivery bicycle pedestrian" speed="3.65" length="4.67" shape="1494.54,1521.53 1495.34,1520.33 1496.14,1519.94 1496.94,1520.34 1497.74,1521.54"/>
    </edge>
    <edge id=":2173886242_0" function="internal">
        <lane id=":2173886242_0_0" index="0" disallow="tram rail_urban rail rail_electric ship" speed="3.65" length="4.67" shape="1222.82,1518.70 1221.62,1517.91 1221.22,1517.11 1221.62,1516.31 1222.82,1515.50"/>
    </edge>
    <edge id=":2173886262_0" function="internal">
        <lane id=":2173886262_0_0" index="0" disallow="tram rail_urban rail rail_electric ship" speed="13.89" length="0.10" shape="1517.92,1518.28 1517.92,1518.28"/>
    </edge>
    <edge id=":2173886262_1" function="internal">
        <lane id=":2173886262_1_0" index="0" disallow="tram rail_urban rail rail_electric ship" speed="13.89" length="0.10" shape="1517.90,1515.08 1517.90,1515.08"/>
    </edge>
    <edge id=":2173886279_0" function="internal">
        <lane id=":2173886279_0_0" index="0" allow="delivery bicycle pedestrian" speed="3.65" length="4.67" shape="1409.11,1672.80 1408.32,1674.00 1407.52,1674.40 1406.72,1674.00 1405.91,1672.80"/>
    </edge>
    <edge id=":2173886294_0" function="internal">
        <lane id=":2173886294_0_0" index="0" disallow="tram rail_urban rail rail_electric ship" speed="5.04" length="5.00" shape="1582.41,1521.25 1582.21,1519.89 1581.63,1518.92 1580.66,1518.34 1579.31,1518.15"/>
    </edge>
    <edge id=":2173886294_1" function="internal">
        <lane id=":2173886294_1_0" index="0" disallow="tram rail_urban rail rail_electric ship" speed="6.86" length="10.16" shape="1582.41,1521.25 1582.80,1518.49 1583.98,1516.52 1585.95,1515.34 1588.71,1514.94"/>
    </edge>
    <edge id=":2173886294_2" function="internal">
        <lane id=":2173886294_2_0" index="0" allow="delivery bicycle pedestrian" speed="3.65" length="4.67" shape="1582.41,1521.25 1583.21,1520.05 1584.01,1519.65 1584.81,1520.05 1585.61,1521.24"/>
    </edge>
    <edge id=":2173886294_3" function="internal">
        <lane id=":2173886294_3_0" index="0" allow="delivery bicycle pedestrian" speed="5.04" length="5.00" shape="1588.71,1518.14 1587.35,1518.34 1586.38,1518.92 1585.80,1519.89 1585.61,1521.24"/>
    </edge>
    <edge id=":2173886294_4" function="internal">
        <lane id=":2173886294_4_0" index="0" disallow="tram rail_urban rail rail_electric ship" speed="13.89" length="9.40" shape="1588.71,1518.14 1579.31,1518.15"/>
    </edge>
    <edge id=":2173886294_5" function="internal">
        <lane id=":2173886294_5_0" index="0" disallow="tram rail_urban rail rail_electric ship" speed="3.65" length="2.34" shape="1588.71,1518.14 1587.51,1517.34 1587.11,1516.54"/>
    </edge>
    <edge id=":2173886294_9" function="internal">
        <lane id=":2173886294_9_0" index="0" disallow="tram rail_urban rail rail_electric ship" speed="3.65" length="2.34" shape="1587.11,1516.54 1587.51,1515.74 1588.71,1514.94"/>
    </edge>
    <edge id=":2173886294_6" function="internal">
        <lane id=":2173886294_6_0" index="0" disallow="tram rail_urban rail rail_electric ship" speed="13.89" length="9.40" shape="1579.31,1514.95 1588.71,1514.94"/>
    </edge>
    <edge id=":2173886294_7" function="internal">
        <lane id=":2173886294_7_0" index="0" allow="delivery bicycle pedestrian" speed="6.86" length="5.08" shape="1579.31,1514.95 1582.06,1515.34 1584.03,1516.52"/>
    </edge>
    <edge id=":2173886294_8" function="internal">
        <lane id=":2173886294_8_0" index="0" disallow="tram rail_urban rail rail_electric ship" speed="3.65" length="2.34" shape="1579.31,1514.95 1580.51,1515.75 1580.91,1516.55"/>
    </edge>
    <edge id=":2173886294_10" function="internal">
        <lane id=":2173886294_10_0" index="0" allow="delivery bicycle pedestrian" speed="6.86" length="5.08" shape="1584.03,1516.52 1585.21,1518.49 1585.61,1521.24"/>
    </edge>
    <edge id=":2173886294_11" function="internal">
        <lane id=":2173886294_11_0" index="0" disallow="tram rail_urban rail rail_electric ship" speed="3.65" length="2.34" shape="1580.91,1516.55 1580.51,1517.35 1579.31,1518.15"/>
    </edge>
    <edge id=":2173886299_0" function="internal">
        <lane id=":2173886299_0_0" index="0" allow="delivery bicycle pedestrian" speed="3.65" length="4.67" shape="1674.33,1673.01 1673.53,1674.21 1672.73,1674.61 1671.93,1674.20 1671.13,1673.00"/>
    </edge>
    <edge id=":2173886301_0" function="internal">
        <lane id=":2173886301_0_0" index="0" disallow="tram rail_urban rail rail_electric ship" speed="5.03" length="5.01" shape="1405.85,1522.09 1405.65,1520.73 1405.07,1519.76 1404.10,1519.19 1402.73,1519.01"/>
    </edge>
    <edge id=":2173886301_1" function="internal">
        <lane id=":2173886301_1_0" index="0" disallow="tram rail_urban rail rail_electric ship" speed="6.88" length="10.16" shape="1405.85,1522.09 1406.24,1519.33 1407.41,1517.35 1409.37,1516.15 1412.11,1515.73"/>
    </edge>
    <edge id=":2173886301_2" function="internal">
        <lane id=":2173886301_2_0" index="0" allow="delivery bicycle pedestrian" speed="3.65" length="4.67" shape="1405.85,1522.09 1406.65,1520.89 1407.45,1520.49 1408.25,1520.89 1409.05,1522.09"/>
    </edge>
    <edge id=":2173886301_3" function="internal">
        <lane id=":2173886301_3_0" index="0" allow="delivery bicycle pedestrian" speed="5.06" length="5.03" shape="1412.14,1518.93 1410.78,1519.14 1409.82,1519.73 1409.24,1520.72 1409.05,1522.09"/>
    </edge>
    <edge id=":2173886301_4" function="internal">
        <lane id=":2173886301_4_0" index="0" disallow="tram rail_urban rail rail_electric ship" speed="13.89" length="9.40" shape="1412.14,1518.93 1402.73,1519.01"/>
    </edge>
    <edge id=":2173886301_5" function="internal">
        <lane id=":2173886301_5_0" index="0" disallow="tram rail_urban rail rail_electric ship" speed="3.65" length="2.34" shape="1412.14,1518.93 1410.93,1518.14 1410.52,1517.35"/>
    </edge>
    <edge id=":2173886301_9" function="internal">
        <lane id=":2173886301_9_0" index="0" disallow="tram rail_urban rail rail_electric ship" speed="3.65" length="2.34" shape="1410.52,1517.35 1410.92,1516.54 1412.11,1515.73"/>
    </edge>
    <edge id=":2173886301_6" function="internal">
        <lane id=":2173886301_6_0" index="0" disallow="tram rail_urban rail rail_electric ship" speed="13.89" length="9.41" shape="1402.71,1515.81 1412.11,1515.73"/>
    </edge>
    <edge id=":2173886301_7" function="internal">
        <lane id=":2173886301_7_0" index="0" allow="delivery bicycle pedestrian" speed="6.86" length="5.10" shape="1402.71,1515.81 1405.48,1516.18 1407.46,1517.35"/>
    </edge>
    <edge id=":2173886301_8" function="internal">
        <lane id=":2173886301_8_0" index="0" disallow="tram rail_urban rail rail_electric ship" speed="3.65" length="2.34" shape="1402.71,1515.81 1403.91,1516.60 1404.32,1517.39"/>
    </edge>
    <edge id=":2173886301_10" function="internal">
        <lane id=":2173886301_10_0" index="0" allow="delivery bicycle pedestrian" speed="6.86" length="5.10" shape="1407.46,1517.35 1408.65,1519.32 1409.05,1522.09"/>
    </edge>
    <edge id=":2173886301_11" function="internal">
        <lane id=":2173886301_11_0" index="0" disallow="tram rail_urban rail rail_electric ship" speed="3.65" length="2.34" shape="1404.32,1517.39 1403.93,1518.20 1402.73,1519.01"/>
    </edge>
    <edge id=":2173886314_0" function="internal">
        <lane id=":2173886314_0_0" index="0" allow="delivery bicycle pedestrian" speed="3.65" length="4.67" shape="1317.56,1617.10 1316.75,1618.29 1315.95,1618.69 1315.15,1618.29 1314.36,1617.09"/>
    </edge>
    <edge id=":2173886317_0" function="internal">
        <lane id=":2173886317_0_0" index="0" allow="delivery bicycle pedestrian" speed="3.65" length="4.67" shape="1585.69,1672.94 1584.89,1674.14 1584.09,1674.54 1583.29,1674.14 1582.49,1672.94"/>
    </edge>
    <edge id=":2173886324_0" function="internal">
        <lane id=":2173886324_0_0" index="0" allow="delivery bicycle pedestrian" speed="5.02" length="5.02" shape="1320.86,1518.65 1319.50,1518.83 1318.52,1519.40 1317.93,1520.36 1317.73,1521.73"/>
    </edge>
    <edge id=":2173886324_1" function="internal">
        <lane id=":2173886324_1_0" index="0" disallow="tram rail_urban rail rail_electric ship" speed="13.89" length="9.43" shape="1320.86,1518.65 1311.43,1518.59"/>
    </edge>
    <edge id=":2173886324_2" function="internal">
        <lane id=":2173886324_2_0" index="0" disallow="tram rail_urban rail rail_electric ship" speed="3.65" length="2.34" shape="1320.86,1518.65 1319.68,1517.83 1319.29,1517.03"/>
    </edge>
    <edge id=":2173886324_9" function="internal">
        <lane id=":2173886324_9_0" index="0" disallow="tram rail_urban rail rail_electric ship" speed="3.65" length="2.34" shape="1319.29,1517.03 1319.70,1516.23 1320.91,1515.45"/>
    </edge>
    <edge id=":2173886324_3" function="internal">
        <lane id=":2173886324_3_0" index="0" disallow="tram rail_urban rail rail_electric ship" speed="13.89" length="9.49" shape="1311.43,1515.39 1320.91,1515.45"/>
    </edge>
    <edge id=":2173886324_4" function="internal">
        <lane id=":2173886324_4_0" index="0" allow="delivery bicycle pedestrian" speed="6.87" length="5.09" shape="1311.43,1515.39 1314.19,1515.78 1316.16,1516.96"/>
    </edge>
    <edge id=":2173886324_5" function="internal">
        <lane id=":2173886324_5_0" index="0" disallow="tram rail_urban rail rail_electric ship" speed="3.65" length="2.34" shape="1311.43,1515.39 1312.63,1516.18 1313.03,1516.98"/>
    </edge>
    <edge id=":2173886324_10" function="internal">
        <lane id=":2173886324_10_0" index="0" allow="delivery bicycle pedestrian" speed="6.87" length="5.11" shape="1316.16,1516.96 1317.34,1518.95 1317.73,1521.73"/>
    </edge>
    <edge id=":2173886324_11" function="internal">
        <lane id=":2173886324_11_0" index="0" disallow="tram rail_urban rail rail_electric ship" speed="3.65" length="2.34" shape="1313.03,1516.98 1312.63,1517.78 1311.43,1518.59"/>
    </edge>
    <edge id=":2173886324_6" function="internal">
        <lane id=":2173886324_6_0" index="0" disallow="tram rail_urban rail rail_electric ship" speed="5.05" length="5.03" shape="1314.53,1521.72 1314.34,1520.35 1313.76,1519.37 1312.79,1518.78 1311.43,1518.59"/>
    </edge>
    <edge id=":2173886324_7" function="internal">
        <lane id=":2173886324_7_0" index="0" disallow="tram rail_urban rail rail_electric ship" speed="6.85" length="10.23" shape="1314.53,1521.72 1314.94,1518.94 1316.13,1516.97 1318.13,1515.81 1320.91,1515.45"/>
    </edge>
    <edge id=":2173886324_8" function="internal">
        <lane id=":2173886324_8_0" index="0" allow="delivery bicycle pedestrian" speed="3.65" length="4.67" shape="1314.53,1521.72 1315.34,1520.52 1316.14,1520.12 1316.94,1520.52 1317.73,1521.73"/>
    </edge>
    <edge id=":2173886328_0" function="internal">
        <lane id=":2173886328_0_0" index="0" allow="delivery bicycle pedestrian" speed="3.65" length="4.67" shape="1497.29,1672.87 1496.49,1674.07 1495.68,1674.47 1494.89,1674.07 1494.09,1672.86"/>
    </edge>
    <edge id=":2419078724_0" function="internal">
        <lane id=":2419078724_0_0" index="0" allow="delivery bicycle pedestrian" speed="3.65" length="4.67" shape="1713.12,1292.83 1711.91,1293.62 1711.02,1293.68 1710.44,1293.00 1710.17,1291.58"/>
    </edge>
    <edge id=":2419078728_0" function="internal">
        <lane id=":2419078728_0_0" index="0" disallow="tram rail_urban rail rail_electric ship" speed="5.02" length="5.03" shape="1748.24,1255.83 1749.55,1256.25 1750.68,1256.15 1751.62,1255.52 1752.37,1254.36"/>
    </edge>
    <edge id=":2419078728_1" function="internal">
        <lane id=":2419078728_1_0" index="0" allow="delivery bicycle pedestrian" speed="3.65" length="4.67" shape="1748.24,1255.83 1748.97,1257.07 1748.97,1257.97 1748.26,1258.51 1746.83,1258.70"/>
    </edge>
    <edge id=":2419078728_2" function="internal">
        <lane id=":2419078728_2_0" index="0" allow="delivery bicycle pedestrian" speed="5.12" length="5.09" shape="1748.44,1262.89 1748.82,1261.59 1748.68,1260.45 1748.01,1259.49 1746.83,1258.70"/>
    </edge>
    <edge id=":2419078728_3" function="internal">
        <lane id=":2419078728_3_0" index="0" disallow="tram rail_urban rail rail_electric ship" speed="22.22" length="9.39" shape="1748.44,1262.89 1752.37,1254.36"/>
        <lane id=":2419078728_3_1" index="1" disallow="tram rail_urban rail rail_electric ship" speed="22.22" length="9.39" shape="1751.34,1264.23 1755.28,1255.70"/>
        <lane id=":2419078728_3_2" index="2" disallow="tram rail_urban rail rail_electric ship" speed="22.22" length="9.39" shape="1754.25,1265.57 1758.18,1257.04"/>
    </edge>
    <edge id=":2419078733_0" function="internal">
        <lane id=":2419078733_0_0" index="0" allow="delivery bicycle pedestrian" speed="5.56" length="9.27" shape="1699.14,1266.36 1689.87,1266.19"/>
    </edge>
    <edge id=":2419078733_1" function="internal">
        <lane id=":2419078733_1_0" index="0" allow="delivery bicycle pedestrian" speed="5.56" length="10.10" shape="1699.14,1266.36 1696.47,1265.88 1694.55,1264.64 1693.39,1262.64 1692.98,1259.88"/>
    </edge>
    <edge id=":2419078733_2" function="internal">
        <lane id=":2419078733_2_0" index="0" allow="delivery bicycle pedestrian" speed="3.65" length="4.67" shape="1699.14,1266.36 1697.97,1265.52 1697.59,1264.71 1698.02,1263.92 1699.24,1263.16"/>
    </edge>
    <edge id=":2419078733_3" function="internal">
        <lane id=":2419078733_3_0" index="0" allow="delivery bicycle pedestrian" speed="5.15" length="5.10" shape="1696.18,1259.85 1696.38,1261.26 1696.96,1262.28 1697.91,1262.92 1699.24,1263.16"/>
    </edge>
    <edge id=":2419078733_4" function="internal">
        <lane id=":2419078733_4_0" index="0" allow="delivery bicycle pedestrian" speed="5.56" length="10.23" shape="1696.18,1259.85 1695.81,1262.63 1694.63,1264.62 1692.66,1265.81 1689.87,1266.19"/>
    </edge>
    <edge id=":2419078733_5" function="internal">
        <lane id=":2419078733_5_0" index="0" allow="delivery bicycle pedestrian" speed="3.65" length="4.67" shape="1696.18,1259.85 1695.39,1261.06 1694.59,1261.47 1693.79,1261.07 1692.98,1259.88"/>
    </edge>
    <edge id=":2419078733_6" function="internal">
        <lane id=":2419078733_6_0" index="0" allow="delivery bicycle pedestrian" speed="5.03" length="5.02" shape="1689.89,1262.99 1691.25,1262.80 1692.22,1262.22 1692.80,1261.25 1692.98,1259.88"/>
    </edge>
    <edge id=":2419078733_7" function="internal">
        <lane id=":2419078733_7_0" index="0" allow="delivery bicycle pedestrian" speed="5.56" length="9.36" shape="1689.89,1262.99 1699.24,1263.16"/>
    </edge>
    <edge id=":2419078733_8" function="internal">
        <lane id=":2419078733_8_0" index="0" allow="delivery bicycle pedestrian" speed="3.65" length="4.67" shape="1689.89,1262.99 1691.08,1263.80 1691.48,1264.60 1691.08,1265.40 1689.87,1266.19"/>
    </edge>
    <edge id=":243683452_0" function="internal">
        <lane id=":243683452_0_0" index="0" allow="private emergency authority army vip passenger hov taxi bus coach delivery truck trailer motorcycle evehicle custom1 custom2" speed="25.64" length="51.53" shape="1701.30,1419.30 1708.62,1420.08 1721.37,1421.37 1736.92,1422.46 1752.68,1422.66"/>
    </edge>
    <edge id=":243683452_1" function="internal">
        <lane id=":243683452_1_0" index="0" allow="private emergency authority army vip passenger hov taxi bus coach delivery truck trailer motorcycle evehicle custom1 custom2" speed="29.06" length="51.81" shape="1701.17,1422.81 1752.79,1425.86"/>
        <lane id=":243683452_1_1" index="1" allow="private emergency authority army vip passenger hov taxi bus coach delivery truck trailer motorcycle evehicle custom1 custom2" speed="29.06" length="51.81" shape="1701.17,1426.01 1752.89,1429.06"/>
        <lane id=":243683452_1_2" index="2" allow="private emergency authority army vip passenger hov taxi bus coach delivery truck trailer motorcycle evehicle custom1 custom2" speed="29.06" length="51.81" shape="1701.16,1429.21 1752.99,1432.26"/>
    </edge>
    <edge id=":243683479_0" function="internal">
        <lane id=":243683479_0_0" index="0" allow="private emergency authority army vip passenger hov taxi bus coach delivery truck trailer motorcycle evehicle custom1 custom2" speed="25.64" length="46.12" shape="2103.03,1440.91 2088.90,1442.25 2076.55,1444.52 2066.10,1446.99 2057.68,1448.91"/>
    </edge>
    <edge id=":243683479_1" function="internal">
        <lane id=":243683479_1_0" index="0" allow="private emergency authority army vip passenger hov taxi bus coach delivery truck trailer motorcycle evehicle custom1 custom2" speed="25.64" length="46.24" shape="2103.03,1440.91 2088.80,1441.75 2076.25,1442.95 2065.60,1444.34 2057.09,1445.76"/>
    </edge>
    <edge id=":243683479_2" function="internal">
        <lane id=":243683479_2_0" index="0" allow="private emergency authority army vip passenger hov taxi bus coach delivery truck trailer motorcycle evehicle custom1 custom2" speed="29.06" length="46.30" shape="2103.03,1440.91 2056.67,1441.96"/>
        <lane id=":243683479_2_1" index="1" allow="private emergency authority army vip passenger hov taxi bus coach delivery truck trailer motorcycle evehicle custom1 custom2" speed="29.06" length="46.30" shape="2102.90,1437.71 2056.59,1438.76"/>
        <lane id=":243683479_2_2" index="2" allow="private emergency authority army vip passenger hov taxi bus coach delivery truck trailer motorcycle evehicle custom1 custom2" speed="29.06" length="46.30" shape="2102.77,1434.52 2056.50,1435.56"/>
        <lane id=":243683479_2_3" index="3" allow="private emergency authority army vip passenger hov taxi bus coach delivery truck trailer motorcycle evehicle custom1 custom2" speed="29.06" length="46.30" shape="2102.63,1431.32 2056.41,1432.36"/>
    </edge>
    <edge id=":243683489_0" function="internal">
        <lane id=":243683489_0_0" index="0" disallow="tram rail_urban rail rail_electric ship" speed="4.04" length="1.63" shape="1669.03,1518.90 1668.77,1518.57 1668.45,1518.33 1668.09,1518.19 1667.67,1518.14"/>
    </edge>
    <edge id=":243683489_1" function="internal">
        <lane id=":243683489_1_0" index="0" allow="delivery bicycle pedestrian" speed="6.33" length="4.88" shape="1667.67,1514.94 1668.93,1515.08 1670.02,1515.51 1670.96,1516.22 1671.75,1517.21"/>
    </edge>
    <edge id=":243683489_2" function="internal">
        <lane id=":243683489_2_0" index="0" disallow="tram rail_urban rail rail_electric ship" speed="3.65" length="4.67" shape="1667.67,1514.94 1668.87,1515.74 1669.27,1516.54 1668.87,1517.34 1667.67,1518.14"/>
    </edge>
    <edge id=":249031490_0" function="internal">
        <lane id=":249031490_0_0" index="0" allow="private emergency authority army vip passenger hov taxi bus coach delivery truck trailer motorcycle evehicle custom1 custom2" speed="15.97" length="28.34" shape="1714.11,1565.73 1710.75,1562.96 1707.57,1557.89 1704.57,1550.53 1701.76,1540.88"/>
    </edge>
    <edge id=":249031490_1" function="internal">
        <lane id=":249031490_1_0" index="0" disallow="tram rail_urban rail rail_electric ship" speed="12.72" length="26.50" shape="1714.11,1565.73 1711.52,1563.08 1709.86,1558.01 1709.11,1550.51 1709.29,1540.59"/>
    </edge>
    <edge id=":249031490_2" function="internal">
        <lane id=":249031490_2_0" index="0" disallow="tram rail_urban rail rail_electric ship" speed="12.45" length="25.35" shape="1714.11,1565.73 1712.89,1563.65 1712.22,1558.79 1712.08,1551.16 1712.48,1540.77"/>
    </edge>
    <edge id=":249031490_3" function="internal">
        <lane id=":249031490_3_0" index="0" allow="private emergency authority army vip passenger hov taxi bus coach delivery truck trailer motorcycle evehicle custom1 custom2" speed="25.00" length="29.62" shape="1704.34,1570.27 1704.50,1560.14 1703.86,1551.87 1702.81,1545.45 1701.76,1540.88"/>
    </edge>
    <edge id=":249031490_4" function="internal">
        <lane id=":249031490_4_0" index="0" disallow="tram rail_urban rail rail_electric ship" speed="27.78" length="29.93" shape="1704.34,1570.27 1706.10,1540.40"/>
        <lane id=":249031490_4_1" index="1" disallow="tram rail_urban rail rail_electric ship" speed="27.78" length="29.93" shape="1707.54,1570.47 1709.29,1540.59"/>
        <lane id=":249031490_4_2" index="2" disallow="tram rail_urban rail rail_electric ship" speed="27.78" length="29.93" shape="1710.73,1570.67 1712.48,1540.77"/>
    </edge>
    <edge id=":249031506_0" function="internal">
        <lane id=":249031506_0_0" index="0" disallow="tram rail_urban rail rail_electric ship" speed="6.48" length="9.03" shape="1728.98,1572.50 1726.51,1572.68 1724.69,1573.61 1723.54,1575.29 1723.04,1577.71"/>
    </edge>
    <edge id=":249031506_1" function="internal">
        <lane id=":249031506_1_0" index="0" disallow="tram rail_urban rail rail_electric ship" speed="7.98" length="14.24" shape="1729.21,1569.31 1725.31,1569.59 1722.45,1571.05 1720.63,1573.70 1719.85,1577.53"/>
    </edge>
    <edge id=":249031506_2" function="internal">
        <lane id=":249031506_2_0" index="0" allow="private emergency authority army vip passenger hov taxi bus coach delivery truck trailer motorcycle evehicle custom1 custom2" speed="22.22" length="15.29" shape="1729.43,1566.12 1724.52,1566.15 1720.72,1566.57 1717.50,1566.69 1714.29,1565.82"/>
    </edge>
    <edge id=":249031506_3" function="internal">
        <lane id=":249031506_3_0" index="0" disallow="tram rail_urban rail rail_electric ship" speed="27.78" length="17.63" shape="1724.14,1560.14 1723.04,1577.71"/>
        <lane id=":249031506_3_1" index="1" disallow="tram rail_urban rail rail_electric ship" speed="27.78" length="17.63" shape="1720.95,1559.93 1719.85,1577.53"/>
        <lane id=":249031506_3_2" index="2" disallow="tram rail_urban rail rail_electric ship" speed="27.78" length="17.63" shape="1717.75,1559.72 1716.66,1577.34"/>
    </edge>
    <edge id=":249031506_6" function="internal">