<?xml version="1.0" encoding="UTF-8"?>

<!-- generated on Tue Jul 30 10:01:54 2019 by Eclipse SUMO netedit Version 1.2.0
<configuration xmlns:xsi="http://www.w3.org/2001/XMLSchema-instance" xsi:noNamespaceSchemaLocation="http://sumo.dlr.de/xsd/netconvertConfiguration.xsd">

    <input>
        <sumo-net-file value="/Users/cxx/Desktop/SUMO/map/ramp5/map.net.xml"/>
    </input>

    <output>
        <output-file value="/Users/cxx/Desktop/SUMO/map/ramp5/map2.net.xml"/>
    </output>

    <processing>
        <geometry.max-grade.fix value="false"/>
        <offset.disable-normalization value="true"/>
        <lefthand value="false"/>
    </processing>

    <junctions>
        <no-turnarounds value="true"/>
        <junctions.corner-detail value="5"/>
        <junctions.limit-turn-speed value="5.5"/>
        <rectangular-lane-cut value="false"/>
    </junctions>

    <pedestrian>
        <walkingareas value="false"/>
    </pedestrian>

</configuration>
-->

<net version="1.1" junctionCornerDetail="5" limitTurnSpeed="5.50" xmlns:xsi="http://www.w3.org/2001/XMLSchema-instance" xsi:noNamespaceSchemaLocation="http://sumo.dlr.de/xsd/net_file.xsd">

    <location netOffset="-555623.97,-4195904.82" convBoundary="0.00,0.00,4063.25,2429.10" origBoundary="-122.367082,37.908721,-122.321015,37.930770" projParameter="+proj=utm +zone=10 +ellps=WGS84 +datum=WGS84 +units=m +no_defs"/>

    <type id="highway.bridleway" priority="1" numLanes="1" speed="2.78" allow="pedestrian" oneway="1" width="2.00"/>
    <type id="highway.bus_guideway" priority="1" numLanes="1" speed="27.78" allow="bus" oneway="1"/>
    <type id="highway.cycleway" priority="1" numLanes="1" speed="8.33" allow="bicycle" oneway="0" width="1.00"/>
    <type id="highway.footway" priority="1" numLanes="1" speed="2.78" allow="pedestrian" oneway="1" width="2.00"/>
    <type id="highway.ford" priority="1" numLanes="1" speed="2.78" allow="army" oneway="0"/>
    <type id="highway.living_street" priority="2" numLanes="1" speed="2.78" disallow="tram rail_urban rail rail_electric ship" oneway="0"/>
    <type id="highway.motorway" priority="14" numLanes="2" speed="39.44" allow="private emergency authority army vip passenger hov taxi bus coach delivery truck trailer motorcycle evehicle custom1 custom2" oneway="1"/>
    <type id="highway.motorway_link" priority="9" numLanes="1" speed="22.22" allow="private emergency authority army vip passenger hov taxi bus coach delivery truck trailer motorcycle evehicle custom1 custom2" oneway="1"/>
    <type id="highway.path" priority="1" numLanes="1" speed="2.78" allow="bicycle pedestrian" oneway="1" width="2.00"/>
    <type id="highway.pedestrian" priority="1" numLanes="1" speed="2.78" allow="pedestrian" oneway="1" width="2.00"/>
    <type id="highway.primary" priority="12" numLanes="2" speed="27.78" disallow="tram rail_urban rail rail_electric ship" oneway="0"/>
    <type id="highway.primary_link" priority="7" numLanes="1" speed="22.22" disallow="tram rail_urban rail rail_electric ship" oneway="0"/>
    <type id="highway.raceway" priority="15" numLanes="2" speed="83.33" allow="vip" oneway="0"/>
    <type id="highway.residential" priority="3" numLanes="1" speed="13.89" disallow="tram rail_urban rail rail_electric ship" oneway="0"/>
    <type id="highway.secondary" priority="11" numLanes="2" speed="27.78" disallow="tram rail_urban rail rail_electric ship" oneway="0"/>
    <type id="highway.secondary_link" priority="6" numLanes="1" speed="22.22" disallow="tram rail_urban rail rail_electric ship" oneway="0"/>
    <type id="highway.service" priority="1" numLanes="1" speed="5.56" allow="delivery bicycle pedestrian" oneway="0"/>
    <type id="highway.stairs" priority="1" numLanes="1" speed="1.39" allow="pedestrian" oneway="1" width="2.00"/>
    <type id="highway.step" priority="1" numLanes="1" speed="1.39" allow="pedestrian" oneway="1" width="2.00"/>
    <type id="highway.steps" priority="1" numLanes="1" speed="1.39" allow="pedestrian" oneway="1" width="2.00"/>
    <type id="highway.tertiary" priority="10" numLanes="1" speed="22.22" disallow="tram rail_urban rail rail_electric ship" oneway="0"/>
    <type id="highway.tertiary_link" priority="5" numLanes="1" speed="22.22" disallow="tram rail_urban rail rail_electric ship" oneway="0"/>
    <type id="highway.track" priority="1" numLanes="1" speed="5.56" disallow="tram rail_urban rail rail_electric ship" oneway="0"/>
    <type id="highway.trunk" priority="13" numLanes="2" speed="27.78" disallow="tram rail_urban rail rail_electric bicycle pedestrian ship" oneway="0"/>
    <type id="highway.trunk_link" priority="8" numLanes="1" speed="22.22" disallow="tram rail_urban rail rail_electric bicycle pedestrian ship" oneway="0"/>
    <type id="highway.unclassified" priority="4" numLanes="1" speed="13.89" disallow="tram rail_urban rail rail_electric ship" oneway="0"/>
    <type id="highway.unsurfaced" priority="1" numLanes="1" speed="8.33" disallow="tram rail_urban rail rail_electric ship" oneway="0"/>
    <type id="railway.light_rail" priority="19" numLanes="1" speed="27.78" allow="rail_urban" oneway="1"/>
    <type id="railway.preserved" priority="16" numLanes="1" speed="27.78" allow="rail" oneway="1"/>
    <type id="railway.rail" priority="20" numLanes="1" speed="83.33" allow="rail rail_electric" oneway="1"/>
    <type id="railway.subway" priority="18" numLanes="1" speed="27.78" allow="rail_urban" oneway="1"/>
    <type id="railway.tram" priority="17" numLanes="1" speed="13.89" allow="tram" oneway="1"/>

    <edge id=":2419078728_0" function="internal">
        <lane id=":2419078728_0_0" index="0" disallow="tram rail_urban rail rail_electric ship" speed="22.22" length="0.30" shape="1750.29,1258.86 1750.42,1258.58"/>
        <lane id=":2419078728_0_1" index="1" disallow="tram rail_urban rail rail_electric ship" speed="22.22" length="0.30" shape="1753.20,1260.20 1753.32,1259.92"/>
        <lane id=":2419078728_0_2" index="2" disallow="tram rail_urban rail rail_electric ship" speed="22.22" length="0.30" shape="1756.11,1261.53 1756.23,1261.27"/>
    </edge>
    <edge id=":243683452_0" function="internal">
        <lane id=":243683452_0_0" index="0" allow="private emergency authority army vip passenger hov taxi bus coach delivery truck trailer motorcycle evehicle custom1 custom2" speed="25.64" length="51.54" shape="1701.30,1419.30 1708.63,1420.08 1721.37,1421.37 1736.94,1422.46 1752.70,1422.66"/>
    </edge>
    <edge id=":243683452_1" function="internal">
        <lane id=":243683452_1_0" index="0" allow="private emergency authority army vip passenger hov taxi bus coach delivery truck trailer motorcycle evehicle custom1 custom2" speed="29.06" length="51.82" shape="1701.17,1422.81 1752.80,1425.86"/>
        <lane id=":243683452_1_1" index="1" allow="private emergency authority army vip passenger hov taxi bus coach delivery truck trailer motorcycle evehicle custom1 custom2" speed="29.06" length="51.82" shape="1701.17,1426.01 1752.90,1429.06"/>
        <lane id=":243683452_1_2" index="2" allow="private emergency authority army vip passenger hov taxi bus coach delivery truck trailer motorcycle evehicle custom1 custom2" speed="29.06" length="51.82" shape="1701.16,1429.21 1753.01,1432.26"/>
    </edge>
    <edge id=":243683479_0" function="internal">
        <lane id=":243683479_0_0" index="0" allow="private emergency authority army vip passenger hov taxi bus coach delivery truck trailer motorcycle evehicle custom1 custom2" speed="25.64" length="46.11" shape="2103.04,1440.91 2088.91,1442.24 2076.57,1444.52 2066.13,1446.99 2057.71,1448.91"/>
    </edge>
    <edge id=":243683479_1" function="internal">
        <lane id=":243683479_1_0" index="0" allow="private emergency authority army vip passenger hov taxi bus coach delivery truck trailer motorcycle evehicle custom1 custom2" speed="25.64" length="46.22" shape="2103.04,1440.91 2088.82,1441.75 2076.27,1442.95 2065.62,1444.33 2057.11,1445.76"/>
    </edge>
    <edge id=":243683479_2" function="internal">
        <lane id=":243683479_2_0" index="0" allow="private emergency authority army vip passenger hov taxi bus coach delivery truck trailer motorcycle evehicle custom1 custom2" speed="29.06" length="46.29" shape="2103.04,1440.91 2056.70,1441.96"/>
        <lane id=":243683479_2_1" index="1" allow="private emergency authority army vip passenger hov taxi bus coach delivery truck trailer motorcycle evehicle custom1 custom2" speed="29.06" length="46.29" shape="2102.91,1437.71 2056.61,1438.76"/>
        <lane id=":243683479_2_2" index="2" allow="private emergency authority army vip passenger hov taxi bus coach delivery truck trailer motorcycle evehicle custom1 custom2" speed="29.06" length="46.29" shape="2102.78,1434.51 2056.52,1435.56"/>
        <lane id=":243683479_2_3" index="3" allow="private emergency authority army vip passenger hov taxi bus coach delivery truck trailer motorcycle evehicle custom1 custom2" speed="29.06" length="46.29" shape="2102.65,1431.32 2056.43,1432.36"/>
    </edge>
    <edge id=":249031490_0" function="internal">
        <lane id=":249031490_0_0" index="0" allow="private emergency authority army vip passenger hov taxi bus coach delivery truck trailer motorcycle evehicle custom1 custom2" speed="15.97" length="28.33" shape="1714.11,1565.73 1710.75,1562.96 1707.57,1557.89 1704.57,1550.53 1701.76,1540.89"/>
    </edge>
    <edge id=":249031490_1" function="internal">
        <lane id=":249031490_1_0" index="0" disallow="tram rail_urban rail rail_electric ship" speed="12.72" length="26.49" shape="1714.11,1565.73 1711.52,1563.08 1709.86,1558.01 1709.12,1550.51 1709.29,1540.59"/>
    </edge>
    <edge id=":249031490_2" function="internal">
        <lane id=":249031490_2_0" index="0" disallow="tram rail_urban rail rail_electric ship" speed="12.45" length="25.34" shape="1714.11,1565.73 1712.89,1563.65 1712.22,1558.79 1712.08,1551.17 1712.49,1540.78"/>
    </edge>
    <edge id=":249031490_3" function="internal">
        <lane id=":249031490_3_0" index="0" allow="private emergency authority army vip passenger hov taxi bus coach delivery truck trailer motorcycle evehicle custom1 custom2" speed="25.00" length="29.61" shape="1704.34,1570.26 1704.51,1560.15 1703.86,1551.87 1702.81,1545.45 1701.76,1540.89"/>
    </edge>
    <edge id=":249031490_4" function="internal">
        <lane id=":249031490_4_0" index="0" disallow="tram rail_urban rail rail_electric ship" speed="27.78" length="29.92" shape="1704.34,1570.26 1706.10,1540.41"/>
        <lane id=":249031490_4_1" index="1" disallow="tram rail_urban rail rail_electric ship" speed="27.78" length="29.92" shape="1707.54,1570.47 1709.29,1540.59"/>
        <lane id=":249031490_4_2" index="2" disallow="tram rail_urban rail rail_electric ship" speed="27.78" length="29.92" shape="1710.73,1570.67 1712.49,1540.78"/>
    </edge>
    <edge id=":249031506_0" function="internal">
        <lane id=":249031506_0_0" index="0" disallow="tram rail_urban rail rail_electric ship" speed="6.48" length="9.03" shape="1728.98,1572.50 1726.51,1572.68 1724.69,1573.60 1723.54,1575.28 1723.04,1577.71"/>
    </edge>
    <edge id=":249031506_1" function="internal">
        <lane id=":249031506_1_0" index="0" disallow="tram rail_urban rail rail_electric ship" speed="7.98" length="14.24" shape="1729.21,1569.31 1725.31,1569.59 1722.45,1571.05 1720.63,1573.69 1719.85,1577.52"/>
    </edge>
    <edge id=":249031506_2" function="internal">
        <lane id=":249031506_2_0" index="0" allow="private emergency authority army vip passenger hov taxi bus coach delivery truck trailer motorcycle evehicle custom1 custom2" speed="22.22" length="15.28" shape="1729.43,1566.12 1724.52,1566.14 1720.72,1566.56 1717.50,1566.69 1714.29,1565.81"/>
    </edge>
    <edge id=":249031506_3" function="internal">
        <lane id=":249031506_3_0" index="0" disallow="tram rail_urban rail rail_electric ship" speed="27.78" length="17.63" shape="1724.14,1560.13 1723.04,1577.71"/>
        <lane id=":249031506_3_1" index="1" disallow="tram rail_urban rail rail_electric ship" speed="27.78" length="17.63" shape="1720.95,1559.92 1719.85,1577.52"/>
        <lane id=":249031506_3_2" index="2" disallow="tram rail_urban rail rail_electric ship" speed="27.78" length="17.63" shape="1717.75,1559.71 1716.65,1577.33"/>
    </edge>
    <edge id=":249031506_6" function="internal">
        <lane id=":249031506_6_0" index="0" allow="private emergency authority army vip passenger hov taxi bus coach delivery truck trailer motorcycle evehicle custom1 custom2" speed="5.57" length="8.16" shape="1717.75,1559.71 1717.35,1562.91 1716.64,1564.99 1715.62,1565.96 1714.29,1565.81"/>
    </edge>
    <edge id=":249031507_0" function="internal">
        <lane id=":249031507_0_0" index="0" allow="private emergency authority army vip passenger hov taxi bus coach delivery truck trailer motorcycle evehicle custom1 custom2" speed="25.00" length="21.05" shape="1729.44,1480.06 1729.47,1487.02 1730.23,1492.52 1731.28,1496.98 1732.18,1500.83"/>
    </edge>
    <edge id=":249031507_1" function="internal">
        <lane id=":249031507_1_0" index="0" disallow="tram rail_urban rail rail_electric ship" speed="27.78" length="21.05" shape="1729.44,1480.06 1728.03,1501.07"/>
        <lane id=":249031507_1_1" index="1" disallow="tram rail_urban rail rail_electric ship" speed="27.78" length="21.05" shape="1726.25,1479.86 1724.84,1500.86"/>
        <lane id=":249031507_1_2" index="2" disallow="tram rail_urban rail rail_electric ship" speed="27.78" length="21.05" shape="1723.05,1479.66 1721.65,1500.65"/>
    </edge>
    <edge id=":249031508_0" function="internal">
        <lane id=":249031508_0_0" index="0" disallow="tram rail_urban rail rail_electric ship" speed="27.78" length="0.30" shape="1734.38,1401.63 1734.36,1401.84"/>
        <lane id=":249031508_0_1" index="1" disallow="tram rail_urban rail rail_electric ship" speed="27.78" length="0.30" shape="1731.19,1401.34 1731.17,1401.64"/>
        <lane id=":249031508_0_2" index="2" disallow="tram rail_urban rail rail_electric ship" speed="27.78" length="0.30" shape="1728.01,1401.05 1727.98,1401.44"/>
    </edge>
    <edge id=":249031509_0" function="internal">
        <lane id=":249031509_0_0" index="0" disallow="tram rail_urban rail rail_electric ship" speed="27.78" length="8.08" shape="1712.96,1476.23 1712.85,1473.84 1712.41,1472.21 1712.01,1470.58 1712.00,1468.20"/>
        <lane id=":249031509_0_1" index="1" disallow="tram rail_urban rail rail_electric ship" speed="27.78" length="8.08" shape="1716.16,1476.42 1716.05,1474.06 1715.60,1472.46 1715.20,1470.87 1715.18,1468.52"/>
    </edge>
    <edge id=":249031560_0" function="internal">
        <lane id=":249031560_0_0" index="0" allow="private emergency authority army vip passenger hov taxi bus coach delivery truck trailer motorcycle evehicle custom1 custom2" speed="22.22" length="18.69" shape="1753.64,1303.08 1752.00,1308.85 1751.79,1313.61 1752.28,1317.70 1752.73,1321.48"/>
    </edge>
    <edge id=":249031560_1" function="internal">
        <lane id=":249031560_1_0" index="0" disallow="tram rail_urban rail rail_electric ship" speed="22.22" length="18.89" shape="1753.64,1303.08 1751.71,1308.26 1750.66,1311.90 1749.74,1315.58 1748.20,1320.90"/>
        <lane id=":249031560_1_1" index="1" disallow="tram rail_urban rail rail_electric ship" speed="22.22" length="18.89" shape="1750.67,1301.88 1748.71,1307.12 1747.65,1310.81 1746.72,1314.54 1745.15,1319.93"/>
        <lane id=":249031560_1_2" index="2" disallow="tram rail_urban rail rail_electric ship" speed="22.22" length="18.89" shape="1747.70,1300.68 1742.10,1318.96"/>
    </edge>
    <edge id=":249041878_0" function="internal">
        <lane id=":249041878_0_0" index="0" allow="private emergency authority army vip passenger hov taxi bus coach delivery truck trailer motorcycle evehicle custom1 custom2" speed="25.64" length="14.64" shape="1190.97,1409.15 1195.62,1408.77 1199.10,1408.27 1202.13,1407.68 1205.44,1407.02"/>
    </edge>
    <edge id=":249041878_1" function="internal">
        <lane id=":249041878_1_0" index="0" allow="private emergency authority army vip passenger hov taxi bus coach delivery truck trailer motorcycle evehicle custom1 custom2" speed="29.06" length="14.73" shape="1190.97,1409.15 1195.38,1409.24 1198.36,1409.86 1201.36,1410.58 1205.76,1410.99"/>
        <lane id=":249041878_1_1" index="1" allow="private emergency authority army vip passenger hov taxi bus coach delivery truck trailer motorcycle evehicle custom1 custom2" speed="29.06" length="14.73" shape="1191.15,1412.35 1195.48,1412.44 1198.43,1413.06 1201.37,1413.79 1205.71,1414.19"/>
        <lane id=":249041878_1_2" index="2" allow="private emergency authority army vip passenger hov taxi bus coach delivery truck trailer motorcycle evehicle custom1 custom2" speed="29.06" length="14.73" shape="1191.33,1415.54 1195.59,1415.64 1198.49,1416.26 1201.38,1416.99 1205.65,1417.39"/>
    </edge>
    <edge id=":249041982_0" function="internal">
        <lane id=":249041982_0_0" index="0" allow="private emergency authority army vip passenger hov taxi bus coach delivery truck trailer motorcycle evehicle custom1 custom2" speed="25.64" length="34.37" shape="2070.95,1407.44 2075.96,1408.09 2083.41,1409.04 2093.12,1409.77 2104.89,1409.76"/>
        <lane id=":249041982_0_1" index="1" allow="private emergency authority army vip passenger hov taxi bus coach delivery truck trailer motorcycle evehicle custom1 custom2" speed="25.64" length="34.37" shape="2070.95,1407.44 2075.95,1408.59 2083.39,1410.64 2093.13,1412.48 2105.03,1412.95"/>
    </edge>
    <edge id=":249041982_2" function="internal">
        <lane id=":249041982_2_0" index="0" allow="private emergency authority army vip passenger hov taxi bus coach delivery truck trailer motorcycle evehicle custom1 custom2" speed="29.06" length="34.06" shape="2070.87,1411.14 2104.89,1409.76"/>
        <lane id=":249041982_2_1" index="1" allow="private emergency authority army vip passenger hov taxi bus coach delivery truck trailer motorcycle evehicle custom1 custom2" speed="29.06" length="34.06" shape="2071.01,1414.34 2105.03,1412.95"/>
        <lane id=":249041982_2_2" index="2" allow="private emergency authority army vip passenger hov taxi bus coach delivery truck trailer motorcycle evehicle custom1 custom2" speed="29.06" length="34.06" shape="2071.14,1417.53 2105.17,1416.15"/>
        <lane id=":249041982_2_3" index="3" allow="private emergency authority army vip passenger hov taxi bus coach delivery truck trailer motorcycle evehicle custom1 custom2" speed="29.06" length="34.06" shape="2071.28,1420.73 2105.32,1419.35"/>
    </edge>
    <edge id=":249041984_0" function="internal">
        <lane id=":249041984_0_0" index="0" disallow="tram rail_urban rail rail_electric ship" speed="25.00" length="10.53" shape="1746.33,1326.46 1745.32,1329.28 1744.70,1331.23 1744.21,1333.22 1743.58,1336.15"/>
        <lane id=":249041984_0_1" index="1" disallow="tram rail_urban rail rail_electric ship" speed="25.00" length="10.53" shape="1743.32,1325.37 1742.27,1328.31 1741.62,1330.35 1741.11,1332.43 1740.45,1335.48"/>
        <lane id=":249041984_0_2" index="2" disallow="tram rail_urban rail rail_electric ship" speed="25.00" length="10.53" shape="1740.31,1324.27 1739.21,1327.34 1738.54,1329.47 1738.00,1331.63 1737.32,1334.82"/>
    </edge>
    <edge id=":249041984_3" function="internal">
        <lane id=":249041984_3_0" index="0" disallow="tram rail_urban rail rail_electric ship" speed="6.89" length="10.07" shape="1734.89,1328.52 1737.75,1329.56 1739.63,1331.06 1740.53,1333.04 1740.45,1335.48"/>
    </edge>
    <edge id=":249041984_4" function="internal">
        <lane id=":249041984_4_0" index="0" disallow="tram rail_urban rail rail_electric ship" speed="6.07" length="7.57" shape="1734.89,1328.52 1736.39,1329.24 1737.29,1330.52 1737.60,1332.38 1737.32,1334.82"/>
    </edge>
    <edge id=":249042026_0" function="internal">
        <lane id=":249042026_0_0" index="0" allow="private emergency authority army vip passenger hov taxi bus coach delivery truck trailer motorcycle evehicle custom1 custom2" speed="25.64" length="22.03" shape="1707.85,1453.49 1703.90,1452.95 1699.25,1452.31 1693.48,1451.72 1686.22,1451.35"/>
        <lane id=":249042026_0_1" index="1" allow="private emergency authority army vip passenger hov taxi bus coach delivery truck trailer motorcycle evehicle custom1 custom2" speed="25.64" length="22.03" shape="1707.85,1453.49 1703.95,1452.45 1699.37,1450.71 1693.65,1449.03 1686.30,1448.15"/>
    </edge>
    <edge id=":249042026_2" function="internal">
        <lane id=":249042026_2_0" index="0" allow="private emergency authority army vip passenger hov taxi bus coach delivery truck trailer motorcycle evehicle custom1 custom2" speed="29.06" length="21.75" shape="1708.05,1449.82 1686.22,1451.35"/>
        <lane id=":249042026_2_1" index="1" allow="private emergency authority army vip passenger hov taxi bus coach delivery truck trailer motorcycle evehicle custom1 custom2" speed="29.06" length="21.75" shape="1708.04,1446.62 1686.30,1448.15"/>
        <lane id=":249042026_2_2" index="2" allow="private emergency authority army vip passenger hov taxi bus coach delivery truck trailer motorcycle evehicle custom1 custom2" speed="29.06" length="21.75" shape="1708.03,1443.42 1686.38,1444.95"/>
        <lane id=":249042026_2_3" index="3" allow="private emergency authority army vip passenger hov taxi bus coach delivery truck trailer motorcycle evehicle custom1 custom2" speed="29.06" length="21.75" shape="1708.02,1440.22 1686.46,1441.76"/>
    </edge>
    <edge id=":249042032_0" function="internal">
        <lane id=":249042032_0_0" index="0" allow="private emergency authority army vip passenger hov taxi bus coach delivery truck trailer motorcycle evehicle custom1 custom2" speed="22.22" length="0.29" shape="1738.15,1456.99 1737.87,1456.96"/>
    </edge>
    <edge id=":249042058_0" function="internal">
        <lane id=":249042058_0_0" index="0" allow="private emergency authority army vip passenger hov taxi bus coach delivery truck trailer motorcycle evehicle custom1 custom2" speed="22.22" length="0.41" shape="1747.88,1531.59 1747.97,1531.68 1748.02,1531.73 1748.09,1531.79 1748.19,1531.85"/>
    </edge>
    <edge id=":249042063_0" function="internal">
        <lane id=":249042063_0_0" index="0" allow="private emergency authority army vip passenger hov taxi bus coach delivery truck trailer motorcycle evehicle custom1 custom2" speed="22.22" length="0.61" shape="1734.13,1512.22 1734.16,1512.40 1734.19,1512.51 1734.25,1512.63 1734.34,1512.78"/>
    </edge>
    <edge id=":249042075_0" function="internal">
        <lane id=":249042075_0_0" index="0" allow="private emergency authority army vip passenger hov taxi bus coach delivery truck trailer motorcycle evehicle custom1 custom2" speed="22.22" length="0.39" shape="1699.39,1531.50 1699.36,1531.39 1699.33,1531.31 1699.30,1531.24 1699.25,1531.14"/>
    </edge>
    <edge id=":249042103_0" function="internal">
        <lane id=":249042103_0_0" index="0" allow="private emergency authority army vip passenger hov taxi bus coach delivery truck trailer motorcycle evehicle custom1 custom2" speed="25.64" length="19.21" shape="1375.48,1447.82 1371.86,1446.84 1367.96,1445.78 1363.21,1444.86 1357.08,1444.32"/>
        <lane id=":249042103_0_1" index="1" allow="private emergency authority army vip passenger hov taxi bus coach delivery truck trailer motorcycle evehicle custom1 custom2" speed="25.64" length="19.21" shape="1375.48,1447.82 1371.93,1446.35 1368.16,1444.19 1363.47,1442.17 1357.20,1441.12"/>
    </edge>
    <edge id=":249042103_2" function="internal">
        <lane id=":249042103_2_0" index="0" allow="private emergency authority army vip passenger hov taxi bus coach delivery truck trailer motorcycle evehicle custom1 custom2" speed="29.06" length="18.73" shape="1375.96,1443.78 1357.08,1444.32"/>
        <lane id=":249042103_2_1" index="1" allow="private emergency authority army vip passenger hov taxi bus coach delivery truck trailer motorcycle evehicle custom1 custom2" speed="29.06" length="18.73" shape="1375.98,1440.58 1357.20,1441.12"/>
        <lane id=":249042103_2_2" index="2" allow="private emergency authority army vip passenger hov taxi bus coach delivery truck trailer motorcycle evehicle custom1 custom2" speed="29.06" length="18.73" shape="1376.00,1437.38 1357.33,1437.93"/>
        <lane id=":249042103_2_3" index="3" allow="private emergency authority army vip passenger hov taxi bus coach delivery truck trailer motorcycle evehicle custom1 custom2" speed="29.06" length="18.73" shape="1376.02,1434.18 1357.45,1434.73"/>
    </edge>
    <edge id=":249042121_0" function="internal">
        <lane id=":249042121_0_0" index="0" allow="private emergency authority army vip passenger hov taxi bus coach delivery truck trailer motorcycle evehicle custom1 custom2" speed="22.22" length="8.21" shape="1595.43,1366.36 1597.11,1364.64 1597.99,1363.19 1598.87,1361.74 1600.54,1360.01"/>
        <lane id=":249042121_0_1" index="1" allow="private emergency authority army vip passenger hov taxi bus coach delivery truck trailer motorcycle evehicle custom1 custom2" speed="22.22" length="8.21" shape="1595.43,1366.36 1597.44,1365.02 1599.02,1364.42 1600.60,1363.81 1602.60,1362.46"/>
    </edge>
    <edge id=":3958621778_0" function="internal">
        <lane id=":3958621778_0_0" index="0" allow="private emergency authority army vip passenger hov taxi bus coach delivery truck trailer motorcycle evehicle custom1 custom2" speed="22.22" length="0.48" shape="1688.31,1510.50 1688.25,1510.38 1688.19,1510.30 1688.13,1510.22 1688.03,1510.12"/>
    </edge>
    <edge id=":3958621779_0" function="internal">
        <lane id=":3958621779_0_0" index="0" allow="private emergency authority army vip passenger hov taxi bus coach delivery truck trailer motorcycle evehicle custom1 custom2" speed="22.22" length="8.17" shape="1832.27,1521.07 1830.86,1522.98 1830.21,1524.52 1829.57,1526.07 1828.20,1528.02"/>
        <lane id=":3958621779_0_1" index="1" allow="private emergency authority army vip passenger hov taxi bus coach delivery truck trailer motorcycle evehicle custom1 custom2" speed="22.22" length="8.17" shape="1832.27,1521.07 1830.48,1522.66 1829.00,1523.47 1827.54,1524.30 1825.78,1525.92"/>
        <lane id=":3958621779_0_2" index="2" allow="private emergency authority army vip passenger hov taxi bus coach delivery truck trailer motorcycle evehicle custom1 custom2" speed="22.22" length="8.17" shape="1829.92,1518.90 1828.10,1520.51 1826.61,1521.34 1825.14,1522.17 1823.37,1523.82"/>
    </edge>
    <edge id=":57816041_0" function="internal">
        <lane id=":57816041_0_0" index="0" allow="private emergency authority army vip passenger hov taxi bus coach delivery truck trailer motorcycle evehicle custom1 custom2" speed="25.00" length="15.55" shape="1716.63,1422.90 1716.90,1417.95 1716.62,1414.16 1715.93,1410.91 1714.95,1407.58"/>
    </edge>
    <edge id=":57816041_1" function="internal">
        <lane id=":57816041_1_0" index="0" disallow="tram rail_urban rail rail_electric ship" speed="25.00" length="5.23" shape="1719.81,1423.23 1719.72,1421.72 1719.27,1420.72 1718.81,1419.71 1718.68,1418.20"/>
    </edge>
    <edge id=":57816044_0" function="internal">
        <lane id=":57816044_0_0" index="0" disallow="tram rail_urban rail rail_electric ship" speed="6.49" length="9.03" shape="1719.72,1323.44 1722.19,1323.62 1724.12,1322.96 1725.51,1321.47 1726.37,1319.14"/>
    </edge>
    <edge id=":57816044_1" function="internal">
        <lane id=":57816044_1_0" index="0" disallow="tram rail_urban rail rail_electric ship" speed="7.99" length="14.22" shape="1719.04,1326.56 1722.93,1326.85 1725.97,1325.81 1728.16,1323.47 1729.50,1319.81"/>
    </edge>
    <edge id=":57816044_2" function="internal">
        <lane id=":57816044_2_0" index="0" allow="private emergency authority army vip passenger hov taxi bus coach delivery truck trailer motorcycle evehicle custom1 custom2" speed="22.22" length="15.79" shape="1719.04,1326.56 1724.05,1327.41 1727.93,1327.72 1731.28,1327.92 1734.70,1328.48"/>
    </edge>
    <edge id=":57816044_3" function="internal">
        <lane id=":57816044_3_0" index="0" disallow="tram rail_urban rail rail_electric ship" speed="22.22" length="14.51" shape="1726.89,1333.91 1729.50,1319.81"/>
        <lane id=":57816044_3_1" index="1" disallow="tram rail_urban rail rail_electric ship" speed="22.22" length="14.51" shape="1726.89,1333.91 1727.90,1330.73 1729.48,1328.01 1731.20,1324.89 1732.63,1320.47"/>
    </edge>
    <edge id=":57816044_5" function="internal">
        <lane id=":57816044_5_0" index="0" allow="private emergency authority army vip passenger hov taxi bus coach delivery truck trailer motorcycle evehicle custom1 custom2" speed="6.94" length="11.04" shape="1726.89,1333.91 1727.79,1330.93 1729.40,1329.04 1731.70,1328.22 1734.70,1328.48"/>
    </edge>

    <edge id="23073282" from="249031508" to="249031507" priority="11" type="highway.secondary" spreadType="center">
        <lane id="23073282_0" index="0" disallow="tram rail_urban rail rail_electric ship" speed="27.78" length="78.38" shape="1734.36,1401.84 1729.44,1480.06"/>
        <lane id="23073282_1" index="1" disallow="tram rail_urban rail rail_electric ship" speed="27.78" length="78.38" shape="1731.17,1401.64 1726.25,1479.86"/>
        <lane id="23073282_2" index="2" disallow="tram rail_urban rail rail_electric ship" speed="27.78" length="78.38" shape="1727.98,1401.44 1723.05,1479.66"/>
    </edge>
    <edge id="23073285" from="249031509" to="57816041" priority="11" type="highway.secondary" spreadType="center">
        <lane id="23073285_0" index="0" disallow="tram rail_urban rail rail_electric ship" speed="27.78" length="45.53" shape="1712.00,1468.20 1716.63,1422.90"/>
        <lane id="23073285_1" index="1" disallow="tram rail_urban rail rail_electric ship" speed="27.78" length="45.53" shape="1715.18,1468.52 1719.81,1423.23"/>