<?xml version="1.0" encoding="UTF-8"?>

<!-- generated on Thu Dec 12 01:00:58 2019 by Eclipse SUMO netedit Version 1.2.0
<configuration xmlns:xsi="http://www.w3.org/2001/XMLSchema-instance" xsi:noNamespaceSchemaLocation="http://sumo.dlr.de/xsd/netconvertConfiguration.xsd">

    <input>
        <sumo-net-file value="/Users/cxx/Desktop/Meta_lane_change/Lane_change_RL/map/ramp3/map.net.xml"/>
    </input>

    <output>
        <output-file value="/Users/cxx/Desktop/Meta_lane_change/Lane_change_RL/map/ramp3/map.net.xml"/>
    </output>

    <processing>
        <geometry.max-grade.fix value="false"/>
        <offset.disable-normalization value="true"/>
        <lefthand value="false"/>
    </processing>

    <junctions>
        <no-turnarounds value="true"/>
        <junctions.corner-detail value="5"/>
        <junctions.limit-turn-speed value="5.5"/>
        <rectangular-lane-cut value="false"/>
    </junctions>

    <pedestrian>
        <walkingareas value="false"/>
    </pedestrian>

</configuration>
-->

<net version="1.1" junctionCornerDetail="5" limitTurnSpeed="5.50" xmlns:xsi="http://www.w3.org/2001/XMLSchema-instance" xsi:noNamespaceSchemaLocation="http://sumo.dlr.de/xsd/net_file.xsd">

    <location netOffset="-555623.97,-4197268.64" convBoundary="0.00,0.00,2120.30,614.35" origBoundary="-122.367082,37.921171,-122.343001,37.926807" projParameter="+proj=utm +zone=10 +ellps=WGS84 +datum=WGS84 +units=m +no_defs"/>

    <type id="highway.bridleway" priority="1" numLanes="1" speed="2.78" allow="pedestrian" oneway="1" width="2.00"/>
    <type id="highway.bus_guideway" priority="1" numLanes="1" speed="27.78" allow="bus" oneway="1"/>
    <type id="highway.cycleway" priority="1" numLanes="1" speed="8.33" allow="bicycle" oneway="0" width="1.00"/>
    <type id="highway.footway" priority="1" numLanes="1" speed="2.78" allow="pedestrian" oneway="1" width="2.00"/>
    <type id="highway.ford" priority="1" numLanes="1" speed="2.78" allow="army" oneway="0"/>
    <type id="highway.living_street" priority="2" numLanes="1" speed="2.78" disallow="tram rail_urban rail rail_electric ship" oneway="0"/>
    <type id="highway.motorway" priority="14" numLanes="2" speed="39.44" allow="private emergency authority army vip passenger hov taxi bus coach delivery truck trailer motorcycle evehicle custom1 custom2" oneway="1"/>
    <type id="highway.motorway_link" priority="9" numLanes="1" speed="22.22" allow="private emergency authority army vip passenger hov taxi bus coach delivery truck trailer motorcycle evehicle custom1 custom2" oneway="1"/>
    <type id="highway.path" priority="1" numLanes="1" speed="2.78" allow="bicycle pedestrian" oneway="1" width="2.00"/>
    <type id="highway.pedestrian" priority="1" numLanes="1" speed="2.78" allow="pedestrian" oneway="1" width="2.00"/>
    <type id="highway.primary" priority="12" numLanes="2" speed="27.78" disallow="tram rail_urban rail rail_electric ship" oneway="0"/>
    <type id="highway.primary_link" priority="7" numLanes="1" speed="22.22" disallow="tram rail_urban rail rail_electric ship" oneway="0"/>
    <type id="highway.raceway" priority="15" numLanes="2" speed="83.33" allow="vip" oneway="0"/>
    <type id="highway.residential" priority="3" numLanes="1" speed="13.89" disallow="tram rail_urban rail rail_electric ship" oneway="0"/>
    <type id="highway.secondary" priority="11" numLanes="2" speed="27.78" disallow="tram rail_urban rail rail_electric ship" oneway="0"/>
    <type id="highway.secondary_link" priority="6" numLanes="1" speed="22.22" disallow="tram rail_urban rail rail_electric ship" oneway="0"/>
    <type id="highway.service" priority="1" numLanes="1" speed="5.56" allow="delivery bicycle pedestrian" oneway="0"/>
    <type id="highway.stairs" priority="1" numLanes="1" speed="1.39" allow="pedestrian" oneway="1" width="2.00"/>
    <type id="highway.step" priority="1" numLanes="1" speed="1.39" allow="pedestrian" oneway="1" width="2.00"/>
    <type id="highway.steps" priority="1" numLanes="1" speed="1.39" allow="pedestrian" oneway="1" width="2.00"/>
    <type id="highway.tertiary" priority="10" numLanes="1" speed="22.22" disallow="tram rail_urban rail rail_electric ship" oneway="0"/>
    <type id="highway.tertiary_link" priority="5" numLanes="1" speed="22.22" disallow="tram rail_urban rail rail_electric ship" oneway="0"/>
    <type id="highway.track" priority="1" numLanes="1" speed="5.56" disallow="tram rail_urban rail rail_electric ship" oneway="0"/>
    <type id="highway.trunk" priority="13" numLanes="2" speed="27.78" disallow="tram rail_urban rail rail_electric bicycle pedestrian ship" oneway="0"/>
    <type id="highway.trunk_link" priority="8" numLanes="1" speed="22.22" disallow="tram rail_urban rail rail_electric bicycle pedestrian ship" oneway="0"/>
    <type id="highway.unclassified" priority="4" numLanes="1" speed="13.89" disallow="tram rail_urban rail rail_electric ship" oneway="0"/>
    <type id="highway.unsurfaced" priority="1" numLanes="1" speed="8.33" disallow="tram rail_urban rail rail_electric ship" oneway="0"/>
    <type id="railway.light_rail" priority="19" numLanes="1" speed="27.78" allow="rail_urban" oneway="1"/>
    <type id="railway.preserved" priority="16" numLanes="1" speed="27.78" allow="rail" oneway="1"/>
    <type id="railway.rail" priority="20" numLanes="1" speed="83.33" allow="rail rail_electric" oneway="1"/>
    <type id="railway.subway" priority="18" numLanes="1" speed="27.78" allow="rail_urban" oneway="1"/>
    <type id="railway.tram" priority="17" numLanes="1" speed="13.89" allow="tram" oneway="1"/>

    <edge id=":249042103_0" function="internal">
        <lane id=":249042103_0_0" index="0" allow="private emergency authority army vip passenger hov taxi bus coach delivery truck trailer motorcycle evehicle custom1 custom2" speed="25.64" length="17.88" shape="1375.45,84.00 1371.94,83.07 1368.33,82.11 1364.00,81.28 1358.34,80.76"/>
        <lane id=":249042103_0_1" index="1" allow="private emergency authority army vip passenger hov taxi bus coach delivery truck trailer motorcycle evehicle custom1 custom2" speed="25.64" length="17.88" shape="1375.45,84.00 1372.02,82.58 1368.54,80.52 1364.28,78.60 1358.50,77.56"/>
    </edge>
    <edge id=":249042103_2" function="internal">
        <lane id=":249042103_2_0" index="0" allow="private emergency authority army vip passenger hov taxi bus coach delivery truck trailer motorcycle evehicle custom1 custom2" speed="29.06" length="17.40" shape="1375.93,79.96 1358.34,80.76"/>
        <lane id=":249042103_2_1" index="1" allow="private emergency authority army vip passenger hov taxi bus coach delivery truck trailer motorcycle evehicle custom1 custom2" speed="29.06" length="17.40" shape="1375.95,76.76 1358.50,77.56"/>
        <lane id=":249042103_2_2" index="2" allow="private emergency authority army vip passenger hov taxi bus coach delivery truck trailer motorcycle evehicle custom1 custom2" speed="29.06" length="17.40" shape="1375.97,73.56 1358.65,74.37"/>
        <lane id=":249042103_2_3" index="3" allow="private emergency authority army vip passenger hov taxi bus coach delivery truck trailer motorcycle evehicle custom1 custom2" speed="29.06" length="17.40" shape="1375.99,70.36 1358.81,71.17"/>
    </edge>
    <edge id=":57889502_0" function="internal">
        <lane id=":57889502_0_0" index="0" allow="private emergency authority army vip passenger hov taxi bus coach delivery truck trailer motorcycle evehicle custom1 custom2" speed="24.83" length="21.18" shape="1186.20,72.40 1179.35,72.91 1174.10,74.67 1169.93,76.90 1166.36,78.79"/>
    </edge>
    <edge id=":57889502_1" function="internal">
        <lane id=":57889502_1_0" index="0" allow="private emergency authority army vip passenger hov taxi bus coach delivery truck trailer motorcycle evehicle custom1 custom2" speed="29.06" length="21.57" shape="1186.20,72.40 1179.99,72.40 1175.75,72.96 1171.52,73.74 1165.31,74.42"/>
        <lane id=":57889502_1_1" index="1" allow="private emergency authority army vip passenger hov taxi bus coach delivery truck trailer motorcycle evehicle custom1 custom2" speed="29.06" length="21.57" shape="1186.35,69.20 1180.03,69.20 1175.72,69.76 1171.42,70.54 1165.10,71.22"/>
        <lane id=":57889502_1_2" index="2" allow="private emergency authority army vip passenger hov taxi bus coach delivery truck trailer motorcycle evehicle custom1 custom2" speed="29.06" length="21.57" shape="1186.51,66.00 1180.08,66.00 1175.70,66.55 1171.32,67.34 1164.89,68.03"/>
        <lane id=":57889502_1_3" index="3" allow="private emergency authority army vip passenger hov taxi bus coach delivery truck trailer motorcycle evehicle custom1 custom2" speed="29.06" length="21.57" shape="1186.66,62.81 1180.13,62.80 1175.67,63.35 1171.22,64.14 1164.69,64.84"/>
    </edge>
    <edge id=":gneJ0_0" function="internal">
        <lane id=":gneJ0_0_0" index="0" allow="private emergency authority army vip passenger hov taxi bus coach delivery truck trailer motorcycle evehicle custom1 custom2" speed="29.06" length="0.10" shape="1222.20,47.47 1222.20,47.47"/>
        <lane id=":gneJ0_0_1" index="1" allow="private emergency authority army vip passenger hov taxi bus coach delivery truck trailer motorcycle evehicle custom1 custom2" speed="29.06" length="0.10" shape="1222.14,50.67 1222.14,50.67"/>
        <lane id=":gneJ0_0_2" index="2" allow="private emergency authority army vip passenger hov taxi bus coach delivery truck trailer motorcycle evehicle custom1 custom2" speed="29.06" length="0.10" shape="1222.08,53.87 1222.08,53.87"/>
    </edge>
    <edge id=":gneJ1_0" function="internal">
        <lane id=":gneJ1_0_0" index="0" allow="private emergency authority army vip passenger hov taxi bus coach delivery truck trailer motorcycle evehicle custom1 custom2" speed="22.22" length="0.10" shape="1249.33,43.52 1249.33,43.52"/>
    </edge>
    <edge id=":pre_start_0" function="internal">
        <lane id=":pre_start_0_0" index="0" allow="private emergency authority army vip passenger hov taxi bus coach delivery truck trailer motorcycle evehicle custom1 custom2" speed="29.06" length="0.34" shape="645.58,227.62 645.94,227.36"/>
        <lane id=":pre_start_0_1" index="1" allow="private emergency authority army vip passenger hov taxi bus coach delivery truck trailer motorcycle evehicle custom1 custom2" speed="29.06" length="0.34" shape="647.48,230.19 647.76,229.99"/>
        <lane id=":pre_start_0_2" index="2" allow="private emergency authority army vip passenger hov taxi bus coach delivery truck trailer motorcycle evehicle custom1 custom2" speed="29.06" length="0.34" shape="649.39,232.76 649.58,232.63"/>
    </edge>
    <edge id=":rampEntrance_0" function="internal">
        <lane id=":rampEntrance_0_0" index="0" allow="private emergency authority army vip passenger hov taxi bus coach delivery truck trailer motorcycle evehicle custom1 custom2" speed="25.64" length="14.57" shape="1191.07,45.32 1195.69,44.95 1199.14,44.45 1202.16,43.86 1205.46,43.20"/>
    </edge>
    <edge id=":rampEntrance_1" function="internal">
        <lane id=":rampEntrance_1_0" index="0" allow="private emergency authority army vip passenger hov taxi bus coach delivery truck trailer motorcycle evehicle custom1 custom2" speed="29.06" length="14.66" shape="1191.07,45.32 1195.45,45.42 1198.42,46.04 1201.40,46.77 1205.78,47.17"/>
        <lane id=":rampEntrance_1_1" index="1" allow="private emergency authority army vip passenger hov taxi bus coach delivery truck trailer motorcycle evehicle custom1 custom2" speed="29.06" length="14.66" shape="1191.25,48.52 1195.56,48.62 1198.48,49.24 1201.41,49.97 1205.73,50.37"/>
        <lane id=":rampEntrance_1_2" index="2" allow="private emergency authority army vip passenger hov taxi bus coach delivery truck trailer motorcycle evehicle custom1 custom2" speed="29.06" length="14.66" shape="1191.43,51.71 1195.67,51.81 1198.54,52.44 1201.42,53.17 1205.67,53.57"/>
    </edge>
    <edge id=":start_0" function="internal">
        <lane id=":start_0_0" index="0" allow="private emergency authority army vip passenger hov taxi bus coach delivery truck trailer motorcycle evehicle custom1 custom2" speed="29.06" length="0.31" shape="731.65,171.48 732.11,171.22"/>
        <lane id=":start_0_1" index="1" allow="private emergency authority army vip passenger hov taxi bus coach delivery truck trailer motorcycle evehicle custom1 custom2" speed="29.06" length="0.31" shape="733.33,174.20 733.60,174.05"/>
        <lane id=":start_0_2" index="2" allow="private emergency authority army vip passenger hov taxi bus coach delivery truck trailer motorcycle evehicle custom1 custom2" speed="29.06" length="0.31" shape="735.00,176.93 735.09,176.88"/>
    </edge>

    <edge id="23073471" from="3958621778" to="249042103" priority="9" type="highway.motorway_link" spreadType="center" shape="1688.20,146.48 1676.35,134.66 1662.72,127.68 1647.14,123.56 1616.17,117.99 1533.41,105.73 1439.19,91.95 1393.61,88.26 1336.63,74.90">
        <lane id="23073471_0" index="0" allow="private emergency authority army vip passenger hov taxi bus coach delivery truck trailer motorcycle evehicle custom1 custom2" speed="22.22" length="322.90" shape="1688.20,146.48 1676.35,134.66 1662.72,127.68 1647.14,123.56 1616.17,117.99 1533.41,105.73 1439.19,91.95 1393.61,88.26 1375.45,84.00"/>
    </edge>
    <edge id="23073514" from="57889502" to="249050594" priority="9" type="highway.motorway_link" spreadType="center" shape="1191.94,67.87 1161.73,80.77 1087.93,86.72 999.84,100.06 957.66,113.72 887.49,143.78 834.51,170.72 798.30,191.13 762.31,213.42 731.76,234.35 696.29,259.99 646.36,301.14">
        <lane id="23073514_0" index="0" allow="private emergency authority army vip passenger hov taxi bus coach delivery truck trailer motorcycle evehicle custom1 custom2" speed="22.22" length="577.67" shape="1166.36,78.79 1161.73,80.77 1087.93,86.72 999.84,100.06 957.66,113.72 887.49,143.78 834.51,170.72 798.30,191.13 762.31,213.42 731.76,234.35 696.29,259.99 646.36,301.14"/>
    </edge>
    <edge id="23073849#0" from="243683479" to="249042103" priority="14" type="highway.motorway" spreadType="center" shape="2120.30,71.58 1896.95,77.77 1786.04,80.90 1637.11,81.49 1393.26,75.27 1336.63,74.90">
        <lane id="23073849#0_0" index="0" allow="private emergency authority army vip passenger hov taxi bus coach delivery truck trailer motorcycle evehicle custom1 custom2" speed="29.06" length="744.55" shape="2120.43,76.38 1897.08,82.57 1786.12,85.70 1637.06,86.29 1393.18,80.07 1375.93,79.96"/>
        <lane id="23073849#0_1" index="1" allow="private emergency authority army vip passenger hov taxi bus coach delivery truck trailer motorcycle evehicle custom1 custom2" speed="29.06" length="744.55" shape="2120.34,73.18 1896.99,79.37 1786.07,82.50 1637.09,83.09 1393.23,76.87 1375.95,76.76"/>
        <lane id="23073849#0_2" index="2" allow="private emergency authority army vip passenger hov taxi bus coach delivery truck trailer motorcycle evehicle custom1 custom2" speed="29.06" length="744.55" shape="2120.26,69.98 1896.91,76.17 1786.01,79.30 1637.13,79.89 1393.29,73.67 1375.97,73.56"/>
        <lane id="23073849#0_3" index="3" allow="private emergency authority army vip passenger hov taxi bus coach delivery truck trailer motorcycle evehicle custom1 custom2" speed="29.06" length="744.55" shape="2120.17,66.78 1896.82,72.97 1785.96,76.10 1637.16,76.69 1393.34,70.47 1375.99,70.36"/>
    </edge>
    <edge id="23073849#1" from="249042103" to="57889502" priority="14" type="highway.motorway" spreadType="center">
        <lane id="23073849#1_0" index="0" allow="private emergency authority army vip passenger hov taxi bus coach delivery truck trailer motorcycle evehicle custom1 custom2" speed="29.06" length="172.35" shape="1358.34,80.76 1186.20,72.40"/>
        <lane id="23073849#1_1" index="1" allow="private emergency authority army vip passenger hov taxi bus coach delivery truck trailer motorcycle evehicle custom1 custom2" speed="29.06" length="172.35" shape="1358.50,77.56 1186.35,69.20"/>
        <lane id="23073849#1_2" index="2" allow="private emergency authority army vip passenger hov taxi bus coach delivery truck trailer motorcycle evehicle custom1 custom2" speed="29.06" length="172.35" shape="1358.65,74.37 1186.51,66.00"/>
        <lane id="23073849#1_3" index="3" allow="private emergency authority army vip passenger hov taxi bus coach delivery truck trailer motorcycle evehicle custom1 custom2" speed="29.06" length="172.35" shape="1358.81,71.17 1186.66,62.81"/>
    </edge>
    <edge id="23073849#2" from="57889502" to="57935353" priority="14" type="highway.motorway" spreadType="center" shape="1191.94,67.87 1120.90,72.50 1054.80,79.34 975.77,96.48 922.20,112.63 872.07,130.54 826.27,149.71 778.36,171.40 737.69,192.75 711.68,208.48 692.34,220.14 653.61,246.46 604.03,282.67 553.56,323.64 508.64,358.41 460.40,394.62 420.03,426.06 362.40,469.27 308.01,506.40 261.16,534.11 173.36,577.17">
        <lane id="23073849#2_0" index="0" allow="private emergency authority army vip passenger hov taxi bus coach delivery truck trailer motorcycle evehicle custom1 custom2" speed="29.06" length="1133.48" shape="1165.31,74.42 1121.30,77.28 1055.56,84.09 976.97,101.13 923.70,117.19 873.81,135.02 828.19,154.11 780.47,175.72 740.05,196.93 714.16,212.59 694.93,224.18 656.38,250.38 606.96,286.47 556.54,327.40 511.55,362.23 463.32,398.43 422.94,429.87 365.19,473.17 310.59,510.45 263.44,538.34 175.47,581.48"/>
        <lane id="23073849#2_1" index="1" allow="private emergency authority army vip passenger hov taxi bus coach delivery truck trailer motorcycle evehicle custom1 custom2" speed="29.06" length="1133.48" shape="1165.10,71.22 1121.03,74.09 1055.05,80.92 976.17,98.03 922.70,114.15 872.65,132.03 826.91,151.18 779.06,172.84 738.48,194.14 712.51,209.85 693.20,221.49 654.53,247.77 605.01,283.94 554.55,324.89 509.61,359.68 461.37,395.89 421.00,427.33 363.33,470.57 308.87,507.75 261.92,535.52 174.06,578.61"/>
        <lane id="23073849#2_2" index="2" allow="private emergency authority army vip passenger hov taxi bus coach delivery truck trailer motorcycle evehicle custom1 custom2" speed="29.06" length="1133.48" shape="1164.89,68.03 1120.77,70.91 1054.55,77.76 975.37,94.93 921.70,111.11 871.49,129.05 825.63,148.24 777.66,169.96 736.90,191.36 710.85,207.11 691.48,218.79 652.69,245.15 603.05,281.40 552.57,322.39 507.67,357.14 459.43,393.35 419.06,424.79 361.47,467.97 307.15,505.05 260.40,532.70 172.66,575.73"/>
        <lane id="23073849#2_3" index="3" allow="private emergency authority army vip passenger hov taxi bus coach delivery truck trailer motorcycle evehicle custom1 custom2" speed="29.06" length="1133.48" shape="1164.69,64.84 1120.50,67.72 1054.04,74.59 974.57,91.83 920.70,108.07 870.33,126.06 824.35,145.31 776.25,167.08 735.33,188.57 709.20,204.37 689.75,216.10 650.84,242.54 601.10,278.87 550.58,319.88 505.73,354.59 457.48,390.81 417.12,422.25 359.61,465.37 305.43,502.35 258.88,529.88 171.25,572.86"/>
    </edge>
    <edge id="23073855#0" from="249041927" to="pre_start" priority="14" type="highway.motorway" spreadType="center" shape="0.00,614.35 30.23,606.11 72.05,592.97 119.30,577.08 167.17,557.28 210.47,537.73 256.85,513.84 297.09,490.66 341.07,461.31 409.31,410.05 453.86,374.92 499.85,339.89 544.88,306.60 597.17,267.43 647.62,230.09">
        <lane id="23073855#0_0" index="0" allow="private emergency authority army vip passenger hov taxi bus coach delivery truck trailer motorcycle evehicle custom1 custom2" speed="29.06" length="759.64" shape="-0.84,611.26 29.33,603.04 71.06,589.93 118.18,574.08 165.90,554.34 209.08,534.85 255.32,511.03 295.40,487.94 339.22,458.70 407.36,407.51 451.90,372.39 497.93,337.33 542.97,304.03 595.26,264.86 645.58,227.62"/>
        <lane id="23073855#0_1" index="1" allow="private emergency authority army vip passenger hov taxi bus coach delivery truck trailer motorcycle evehicle custom1 custom2" speed="29.06" length="759.64" shape="0.00,614.35 30.23,606.11 72.05,592.97 119.30,577.08 167.17,557.28 210.47,537.73 256.85,513.84 297.09,490.66 341.07,461.31 409.31,410.05 453.86,374.92 499.85,339.89 544.88,306.60 597.17,267.43 647.48,230.19"/>
        <lane id="23073855#0_2" index="2" allow="private emergency authority army vip passenger hov taxi bus coach delivery truck trailer motorcycle evehicle custom1 custom2" speed="29.06" length="759.64" shape="0.84,617.44 31.13,609.18 73.04,596.01 120.42,580.08 168.44,560.22 211.86,540.61 258.38,516.65 298.78,493.38 342.92,463.92 411.26,412.59 455.82,377.45 501.77,342.45 546.79,309.17 599.08,270.00 649.39,232.76"/>
    </edge>
    <edge id="entranceEdge" from="start" to="rampEntrance" priority="14" type="highway.motorway" spreadType="center" shape="733.46,174.12 774.22,152.60 813.87,134.17 822.92,129.96 927.60,87.70 973.07,77.37 1053.54,61.41 1121.29,52.46 1169.92,49.72">
        <lane id="entranceEdge_0" index="0" allow="private emergency authority army vip passenger hov taxi bus coach delivery truck trailer motorcycle evehicle custom1 custom2" speed="29.06" length="479.60" shape="732.11,171.22 772.80,149.73 812.52,131.27 821.65,127.02 926.64,84.64 972.40,74.24 1053.02,58.25 1120.99,49.27 1191.07,45.32"/>
        <lane id="entranceEdge_1" index="1" allow="private emergency authority army vip passenger hov taxi bus coach delivery truck trailer motorcycle evehicle custom1 custom2" speed="29.06" length="479.60" shape="733.60,174.05 774.22,152.60 813.87,134.17 822.92,129.96 927.60,87.70 973.07,77.37 1053.54,61.41 1121.29,52.46 1191.25,48.52"/>
        <lane id="entranceEdge_2" index="2" allow="private emergency authority army vip passenger hov taxi bus coach delivery truck trailer motorcycle evehicle custom1 custom2" speed="29.06" length="479.60" shape="735.09,176.88 775.64,155.47 815.22,137.07 824.19,132.90 928.56,90.76 973.74,80.50 1054.06,64.57 1121.59,55.65 1191.43,51.71"/>
    </edge>
    <edge id="exit" from="rampEntrance" to="gneJ0" priority="14" type="highway.motorway" spreadType="center">
        <lane id="exit_0" index="0" allow="private emergency authority army vip passenger hov taxi bus coach delivery truck trailer motorcycle evehicle custom1 custom2" speed="29.06" length="16.42" shape="1205.78,47.17 1222.20,47.47"/>
        <lane id="exit_1" index="1" allow="private emergency authority army vip passenger hov taxi bus coach delivery truck trailer motorcycle evehicle custom1 custom2" speed="29.06" length="16.42" shape="1205.73,50.37 1222.14,50.67"/>
        <lane id="exit_2" index="2" allow="private emergency authority army vip passenger hov taxi bus coach delivery truck trailer motorcycle evehicle custom1 custom2" speed="29.06" length="16.42" shape="1205.67,53.57 1222.08,53.87"/>
    </edge>
    <edge id="exit.52" from="gneJ0" to="243683452" priority="14" type="highway.motorway" spreadType="center" shape="1222.14,50.67 1392.98,53.76 1492.85,57.98 1586.21,58.63 1666.94,62.15 1794.22,62.32">
        <lane id="exit.52_0" index="0" allow="private emergency authority army vip passenger hov taxi bus coach delivery truck trailer motorcycle evehicle custom1 custom2" speed="29.06" length="572.28" shape="1222.20,47.47 1393.08,50.56 1492.93,54.78 1586.29,55.43 1667.01,58.95 1794.22,59.12"/>
        <lane id="exit.52_1" index="1" allow="private emergency authority army vip passenger hov taxi bus coach delivery truck trailer motorcycle evehicle custom1 custom2" speed="29.06" length="572.28" shape="1222.14,50.67 1392.98,53.76 1492.85,57.98 1586.21,58.63 1666.94,62.15 1794.22,62.32"/>
        <lane id="exit.52_2" index="2" allow="private emergency authority army vip passenger hov taxi bus coach delivery truck trailer motorcycle evehicle custom1 custom2" speed="29.06" length="572.28" shape="1222.08,53.87 1392.88,56.96 1492.77,61.18 1586.13,61.83 1666.87,65.35 1794.22,65.52"/>
    </edge>
    <edge id="rampExit" from="rampEntrance" to="gneJ1" priority="9" type="highway.motorway_link" spreadType="center" shape="1169.92,49.72 1208.92,42.57 1249.33,43.52">
        <lane id="rampExit_0" index="0" allow="private emergency authority army vip passenger hov taxi bus coach delivery truck trailer motorcycle evehicle custom1 custom2" speed="22.22" length="43.94" shape="1205.46,43.20 1208.92,42.57 1249.33,43.52"/>
    </edge>
    <edge id="rampExit.80" from="gneJ1" to="249042121" priority="9" type="highway.motorway_link" spreadType="center" shape="1249.33,43.52 1345.39,45.77 1408.51,42.77 1466.32,40.29 1513.69,37.46 1534.03,35.21 1561.33,26.19 1578.13,16.82 1598.51,0.00">
        <lane id="rampExit.80_0" index="0" allow="private emergency authority army vip passenger hov taxi bus coach delivery truck trailer motorcycle evehicle custom1 custom2" speed="22.22" length="359.47" shape="1249.33,43.52 1345.39,45.77 1408.51,42.77 1466.32,40.29 1513.69,37.46 1534.03,35.21 1561.33,26.19 1578.13,16.82 1598.51,0.00"/>
    </edge>
    <edge id="warm_up" from="pre_start" to="start" priority="14" type="highway.motorway" spreadType="center" shape="647.62,230.09 689.86,200.93 733.46,174.12">
        <lane id="warm_up_0" index="0" allow="private emergency authority army vip passenger hov taxi bus coach delivery truck trailer motorcycle evehicle custom1 custom2" speed="29.06" length="102.18" shape="645.94,227.36 688.11,198.25 731.65,171.48"/>
        <lane id="warm_up_1" index="1" allow="private emergency authority army vip passenger hov taxi bus coach delivery truck trailer motorcycle evehicle custom1 custom2" speed="29.06" length="102.18" shape="647.76,229.99 689.86,200.93 733.33,174.20"/>
        <lane id="warm_up_2" index="2" allow="private emergency authority army vip passenger hov taxi bus coach delivery truck trailer motorcycle evehicle custom1 custom2" speed="29.06" length="102.18" shape="649.58,232.63 691.61,203.61 735.00,176.93"/>
    </edge>

    <junction id="243683452" type="dead_end" x="1794.22" y="62.32" incLanes="exit.52_0 exit.52_1 exit.52_2" intLanes="" shape="1794.23,57.52 1794.21,67.12"/>
    <junction id="243683479" type="dead_end" x="2120.30" y="71.58" incLanes="" intLanes="" shape="2120.12,65.18 2120.48,77.98"/>
    <junction id="249041927" type="dead_end" x="0.00" y="614.35" incLanes="" intLanes="" shape="1.26,618.98 -1.26,609.72"/>
    <junction id="249042103" type="priority" x="1336.63" y="74.90" incLanes="23073471_0 23073849#0_0 23073849#0_1 23073849#0_2 23073849#0_3" intLanes=":249042103_0_0 :249042103_0_1 :249042103_2_0 :249042103_2_1 :249042103_2_2 :249042103_2_3" shape="1375.08,85.56 1375.81,82.44 1375.92,81.56 1376.00,68.76 1358.89,69.57 1358.26,82.36 1361.90,82.60 1364.57,82.94 1366.75,83.38 1368.92,83.95 1371.54,84.67">
        <request index="0" response="111100" foes="111100" cont="0"/>
        <request index="1" response="111100" foes="111100" cont="0"/>
        <request index="2" response="000000" foes="000011" cont="0"/>
        <request index="3" response="000000" foes="000011" cont="0"/>
        <request index="4" response="000000" foes="000011" cont="0"/>
        <request index="5" response="000000" foes="000011" cont="0"/>
    </junction>
    <junction id="249042121" type="dead_end" x="1598.51" y="0.00" incLanes="rampExit.80_0" intLanes="" shape="1597.49,-1.23 1599.53,1.23"/>
    <junction id="249050594" type="dead_end" x="646.36" y="301.14" incLanes="23073514_0" intLanes="" shape="647.38,302.37 645.34,299.91"/>
    <junction id="3958621778" type="dead_end" x="1688.20" y="146.48" incLanes="" intLanes="" shape="1689.33,145.35 1687.07,147.61"/>
    <junction id="57889502" type="priority" x="1191.94" y="67.87" incLanes="23073849#1_0 23073849#1_1 23073849#1_2 23073849#1_3" intLanes=":57889502_0_0 :57889502_1_0 :57889502_1_1 :57889502_1_2 :57889502_1_3" shape="1186.12,73.99 1186.74,61.21 1182.01,61.12 1178.53,61.34 1175.66,61.75 1172.79,62.27 1169.31,62.80 1164.58,63.24 1165.42,76.01 1165.73,77.32 1166.98,80.27 1170.92,78.39 1173.83,76.77 1176.25,75.46 1178.75,74.52 1181.85,74.02">
        <request index="0" response="00000" foes="00000" cont="0"/>
        <request index="1" response="00000" foes="00000" cont="0"/>
        <request index="2" response="00000" foes="00000" cont="0"/>
        <request index="3" response="00000" foes="00000" cont="0"/>
        <request index="4" response="00000" foes="00000" cont="0"/>
    </junction>
    <junction id="57935353" type="dead_end" x="173.36" y="577.17" incLanes="23073849#2_0 23073849#2_1 23073849#2_2 23073849#2_3" intLanes="" shape="176.18,582.92 170.54,571.42"/>
    <junction id="gneJ0" type="priority" x="1222.14" y="50.67" incLanes="exit_0 exit_1 exit_2" intLanes=":gneJ0_0_0 :gneJ0_0_1 :gneJ0_0_2" shape="1222.05,55.47 1222.23,45.87 1222.05,55.47">
        <request index="0" response="000" foes="000" cont="0"/>
        <request index="1" response="000" foes="000" cont="0"/>
        <request index="2" response="000" foes="000" cont="0"/>
    </junction>
    <junction id="gneJ1" type="priority" x="1249.33" y="43.52" incLanes="rampExit_0" intLanes=":gneJ1_0_0" shape="1249.29,45.12 1249.37,41.92 1249.29,45.12">
        <request index="0" response="0" foes="0" cont="0"/>
    </junction>
    <junction id="pre_start" type="priority" x="647.62" y="230.09" incLanes="23073855#0_0 23073855#0_1 23073855#0_2" intLanes=":pre_start_0_0 :pre_start_0_1 :pre_start_0_2" shape="650.49,233.94 645.03,226.04 644.63,226.33 650.34,234.05">
        <request index="0" response="000" foes="000" cont="0"/>
        <request index="1" response="000" foes="000" cont="0"/>
        <request index="2" response="000" foes="000" cont="0"/>
    </junction>
    <junction id="rampEntrance" type="priority" x="1169.92" y="49.72" incLanes="entranceEdge_0 entranceEdge_1 entranceEdge_2" intLanes=":rampEntrance_0_0 :rampEntrance_1_0 :rampEntrance_1_1 :rampEntrance_1_2" shape="1205.64,55.17 1205.81,45.57 1205.75,44.78 1205.17,41.63 1202.17,42.21 1199.95,42.66 1198.11,43.01 1196.27,43.29 1194.02,43.52 1190.98,43.73 1191.52,53.31 1194.54,53.30 1196.75,53.59 1198.57,54.04 1200.39,54.54 1202.61,54.96">