<?xml version="1.0" encoding="UTF-8"?>

<!-- generated on Mon Jul  8 13:13:43 2019 by Eclipse SUMO netconvert Version 1.2.0
<configuration xmlns:xsi="http://www.w3.org/2001/XMLSchema-instance" xsi:noNamespaceSchemaLocation="http://sumo.dlr.de/xsd/netconvertConfiguration.xsd">

    <input>
        <osm-files value="map.osm-2.xml"/>
    </input>

    <output>
        <output-file value="map.net.xml"/>
    </output>

    <projection>
        <proj.utm value="true"/>
    </projection>

</configuration>
-->

<net version="1.1" junctionCornerDetail="5" limitTurnSpeed="5.50" xmlns:xsi="http://www.w3.org/2001/XMLSchema-instance" xsi:noNamespaceSchemaLocation="http://sumo.dlr.de/xsd/net_file.xsd">

    <location netOffset="-559387.88,-4194847.76" convBoundary="0.00,0.00,2481.36,3535.52" origBoundary="-122.324216,37.899049,-122.296285,37.931078" projParameter="+proj=utm +zone=10 +ellps=WGS84 +datum=WGS84 +units=m +no_defs"/>

    <type id="highway.bridleway" priority="1" numLanes="1" speed="2.78" allow="pedestrian" oneway="1" width="2.00"/>
    <type id="highway.bus_guideway" priority="1" numLanes="1" speed="27.78" allow="bus" oneway="1"/>
    <type id="highway.cycleway" priority="1" numLanes="1" speed="8.33" allow="bicycle" oneway="0" width="1.00"/>
    <type id="highway.footway" priority="1" numLanes="1" speed="2.78" allow="pedestrian" oneway="1" width="2.00"/>
    <type id="highway.ford" priority="1" numLanes="1" speed="2.78" allow="army" oneway="0"/>
    <type id="highway.living_street" priority="2" numLanes="1" speed="2.78" disallow="tram rail_urban rail rail_electric ship" oneway="0"/>
    <type id="highway.motorway" priority="14" numLanes="2" speed="39.44" allow="private emergency authority army vip passenger hov taxi bus coach delivery truck trailer motorcycle evehicle custom1 custom2" oneway="1"/>
    <type id="highway.motorway_link" priority="9" numLanes="1" speed="22.22" allow="private emergency authority army vip passenger hov taxi bus coach delivery truck trailer motorcycle evehicle custom1 custom2" oneway="1"/>
    <type id="highway.path" priority="1" numLanes="1" speed="2.78" allow="bicycle pedestrian" oneway="1" width="2.00"/>
    <type id="highway.pedestrian" priority="1" numLanes="1" speed="2.78" allow="pedestrian" oneway="1" width="2.00"/>
    <type id="highway.primary" priority="12" numLanes="2" speed="27.78" disallow="tram rail_urban rail rail_electric ship" oneway="0"/>
    <type id="highway.primary_link" priority="7" numLanes="1" speed="22.22" disallow="tram rail_urban rail rail_electric ship" oneway="0"/>
    <type id="highway.raceway" priority="15" numLanes="2" speed="83.33" allow="vip" oneway="0"/>
    <type id="highway.residential" priority="3" numLanes="1" speed="13.89" disallow="tram rail_urban rail rail_electric ship" oneway="0"/>
    <type id="highway.secondary" priority="11" numLanes="2" speed="27.78" disallow="tram rail_urban rail rail_electric ship" oneway="0"/>
    <type id="highway.secondary_link" priority="6" numLanes="1" speed="22.22" disallow="tram rail_urban rail rail_electric ship" oneway="0"/>
    <type id="highway.service" priority="1" numLanes="1" speed="5.56" allow="delivery bicycle pedestrian" oneway="0"/>
    <type id="highway.stairs" priority="1" numLanes="1" speed="1.39" allow="pedestrian" oneway="1" width="2.00"/>
    <type id="highway.step" priority="1" numLanes="1" speed="1.39" allow="pedestrian" oneway="1" width="2.00"/>
    <type id="highway.steps" priority="1" numLanes="1" speed="1.39" allow="pedestrian" oneway="1" width="2.00"/>
    <type id="highway.tertiary" priority="10" numLanes="1" speed="22.22" disallow="tram rail_urban rail rail_electric ship" oneway="0"/>
    <type id="highway.tertiary_link" priority="5" numLanes="1" speed="22.22" disallow="tram rail_urban rail rail_electric ship" oneway="0"/>
    <type id="highway.track" priority="1" numLanes="1" speed="5.56" disallow="tram rail_urban rail rail_electric ship" oneway="0"/>
    <type id="highway.trunk" priority="13" numLanes="2" speed="27.78" disallow="tram rail_urban rail rail_electric bicycle pedestrian ship" oneway="0"/>
    <type id="highway.trunk_link" priority="8" numLanes="1" speed="22.22" disallow="tram rail_urban rail rail_electric bicycle pedestrian ship" oneway="0"/>
    <type id="highway.unclassified" priority="4" numLanes="1" speed="13.89" disallow="tram rail_urban rail rail_electric ship" oneway="0"/>
    <type id="highway.unsurfaced" priority="1" numLanes="1" speed="8.33" disallow="tram rail_urban rail rail_electric ship" oneway="0"/>
    <type id="railway.light_rail" priority="19" numLanes="1" speed="27.78" allow="rail_urban" oneway="1"/>
    <type id="railway.preserved" priority="16" numLanes="1" speed="27.78" allow="rail" oneway="1"/>
    <type id="railway.rail" priority="20" numLanes="1" speed="83.33" allow="rail rail_electric" oneway="1"/>
    <type id="railway.subway" priority="18" numLanes="1" speed="27.78" allow="rail_urban" oneway="1"/>
    <type id="railway.tram" priority="17" numLanes="1" speed="13.89" allow="tram" oneway="1"/>

    <edge id=":2091869028_0" function="internal">
        <lane id=":2091869028_0_0" index="0" disallow="tram rail_urban rail rail_electric ship" speed="13.89" length="11.19" shape="1111.31,2692.15 1101.56,2686.65"/>
    </edge>
    <edge id=":2091869028_1" function="internal">
        <lane id=":2091869028_1_0" index="0" disallow="tram rail_urban rail rail_electric ship" speed="3.65" length="4.67" shape="1111.31,2692.15 1110.65,2690.86 1110.70,2689.97 1111.44,2689.47 1112.88,2689.36"/>
    </edge>
    <edge id=":2091869028_2" function="internal">
        <lane id=":2091869028_2_0" index="0" disallow="tram rail_urban rail rail_electric ship" speed="6.47" length="9.03" shape="1110.83,2681.74 1109.89,2684.04 1109.92,2686.07 1110.92,2687.85 1112.88,2689.36"/>
    </edge>
    <edge id=":2091869028_3" function="internal">
        <lane id=":2091869028_3_0" index="0" disallow="tram rail_urban rail rail_electric ship" speed="7.38" length="11.74" shape="1110.83,2681.74 1108.58,2684.90 1106.28,2686.77 1103.94,2687.35 1101.56,2686.65"/>
    </edge>
    <edge id=":2091869028_4" function="internal">
        <lane id=":2091869028_4_0" index="0" disallow="tram rail_urban rail rail_electric ship" speed="13.89" length="11.13" shape="1103.19,2683.89 1112.88,2689.36"/>
    </edge>
    <edge id=":2091869028_5" function="internal">
        <lane id=":2091869028_5_0" index="0" disallow="tram rail_urban rail rail_electric ship" speed="3.65" length="4.67" shape="1103.19,2683.89 1103.81,2685.19 1103.75,2686.08 1103.00,2686.57 1101.56,2686.65"/>
    </edge>
    <edge id=":2091869029_0" function="internal">
        <lane id=":2091869029_0_0" index="0" disallow="tram rail_urban rail rail_electric ship" speed="11.66" length="6.36" shape="1122.27,2656.79 1121.39,2658.41 1121.07,2659.66 1121.05,2660.99 1121.03,2662.89"/>
    </edge>
    <edge id=":2091869029_1" function="internal">
        <lane id=":2091869029_1_0" index="0" disallow="tram rail_urban rail rail_electric ship" speed="22.22" length="6.66" shape="1122.27,2656.79 1121.09,2658.33 1120.03,2659.18 1118.86,2659.92 1117.31,2661.15"/>
    </edge>
    <edge id=":2091869029_2" function="internal">
        <lane id=":2091869029_2_0" index="0" disallow="tram rail_urban rail rail_electric ship" speed="3.65" length="2.49" shape="1122.27,2656.79 1120.95,2657.37 1120.06,2657.27 1119.98,2657.14"/>
    </edge>
    <edge id=":2091869029_6" function="internal">
        <lane id=":2091869029_6_0" index="0" disallow="tram rail_urban rail rail_electric ship" speed="3.65" length="2.18" shape="1119.98,2657.14 1119.61,2656.50 1119.58,2655.06"/>
    </edge>
    <edge id=":2091869029_3" function="internal">
        <lane id=":2091869029_3_0" index="0" disallow="tram rail_urban rail rail_electric ship" speed="22.22" length="5.86" shape="1115.14,2658.80 1116.52,2657.73 1117.58,2657.11 1118.53,2656.40 1119.58,2655.06"/>
    </edge>
    <edge id=":2091869029_4" function="internal">
        <lane id=":2091869029_4_0" index="0" disallow="tram rail_urban rail rail_electric ship" speed="5.88" length="5.58" shape="1115.14,2658.80 1117.88,2656.87 1119.78,2656.91 1119.93,2657.21"/>
    </edge>
    <edge id=":2091869029_5" function="internal">
        <lane id=":2091869029_5_0" index="0" disallow="tram rail_urban rail rail_electric ship" speed="3.65" length="2.46" shape="1115.14,2658.80 1116.57,2658.58 1117.40,2658.89 1117.44,2659.01"/>
    </edge>
    <edge id=":2091869029_7" function="internal">
        <lane id=":2091869029_7_0" index="0" disallow="tram rail_urban rail rail_electric ship" speed="5.88" length="5.90" shape="1119.93,2657.21 1120.83,2658.91 1121.03,2662.89"/>
    </edge>
    <edge id=":2091869029_8" function="internal">
        <lane id=":2091869029_8_0" index="0" disallow="tram rail_urban rail rail_electric ship" speed="3.65" length="2.22" shape="1117.44,2659.01 1117.65,2659.75 1117.31,2661.15"/>
    </edge>
    <edge id=":241887542_0" function="internal">
        <lane id=":241887542_0_0" index="0" disallow="tram rail_urban rail rail_electric ship" speed="22.22" length="9.81" shape="859.69,2383.21 868.17,2388.14"/>
    </edge>
    <edge id=":241887542_1" function="internal">
        <lane id=":241887542_1_0" index="0" disallow="tram rail_urban rail rail_electric ship" speed="13.53" length="9.83" shape="858.68,2386.91 861.62,2386.77 863.72,2386.57 865.67,2386.84 868.17,2388.14"/>
    </edge>
    <edge id=":241887544_0" function="internal">
        <lane id=":241887544_0_0" index="0" disallow="tram rail_urban rail rail_electric ship" speed="22.22" length="4.13" shape="877.42,2398.96 876.36,2398.34 875.62,2397.95 874.83,2397.65 873.65,2397.33"/>
    </edge>
    <edge id=":241887544_1" function="internal">
        <lane id=":241887544_1_0" index="0" disallow="tram rail_urban rail rail_electric ship" speed="3.65" length="2.34" shape="877.42,2398.96 876.78,2397.67 876.83,2396.77"/>
    </edge>
    <edge id=":241887544_4" function="internal">
        <lane id=":241887544_4_0" index="0" disallow="tram rail_urban rail rail_electric ship" speed="3.65" length="2.34" shape="876.83,2396.77 877.58,2396.28 879.02,2396.19"/>
    </edge>
    <edge id=":241887544_2" function="internal">
        <lane id=":241887544_2_0" index="0" disallow="tram rail_urban rail rail_electric ship" speed="19.21" length="3.49" shape="876.33,2394.01 877.03,2394.77 877.55,2395.25 878.13,2395.66 879.02,2396.19"/>
    </edge>
    <edge id=":241887544_3" function="internal">
        <lane id=":241887544_3_0" index="0" disallow="tram rail_urban rail rail_electric ship" speed="4.95" length="3.92" shape="876.33,2394.01 877.90,2396.14 877.98,2397.41"/>
    </edge>
    <edge id=":241887544_5" function="internal">
        <lane id=":241887544_5_0" index="0" disallow="tram rail_urban rail rail_electric ship" speed="4.95" length="4.41" shape="877.98,2397.41 876.56,2397.81 873.65,2397.33"/>
    </edge>
    <edge id=":241887549_0" function="internal">
        <lane id=":241887549_0_0" index="0" disallow="tram rail_urban rail rail_electric ship" speed="22.22" length="14.43" shape="802.03,2400.12 787.58,2401.19"/>
        <lane id=":241887549_0_1" index="1" disallow="tram rail_urban rail rail_electric ship" speed="22.22" length="14.43" shape="801.75,2396.93 787.41,2398.00"/>
    </edge>
    <edge id=":241887549_2" function="internal">
        <lane id=":241887549_2_0" index="0" disallow="tram rail_urban rail rail_electric bicycle pedestrian ship" speed="5.91" length="10.53" shape="801.75,2396.93 797.78,2396.97 795.36,2396.26 794.49,2394.78 795.15,2392.56"/>
    </edge>
    <edge id=":241887549_3" function="internal">
        <lane id=":241887549_3_0" index="0" disallow="tram rail_urban rail rail_electric bicycle pedestrian ship" speed="4.79" length="6.40" shape="801.75,2396.93 799.40,2396.94 797.98,2396.47 797.50,2395.53 797.95,2394.10"/>
    </edge>
    <edge id=":260606483_0" function="internal">
        <lane id=":260606483_0_0" index="0" disallow="tram rail_urban rail rail_electric ship" speed="13.89" length="14.28" shape="889.16,2566.04 876.65,2559.16"/>
    </edge>
    <edge id=":260606483_1" function="internal">
        <lane id=":260606483_1_0" index="0" disallow="tram rail_urban rail rail_electric ship" speed="7.92" length="5.80" shape="889.16,2566.04 886.02,2563.61 885.14,2562.01"/>
    </edge>
    <edge id=":260606483_2" function="internal">
        <lane id=":260606483_2_0" index="0" disallow="tram rail_urban rail rail_electric ship" speed="3.65" length="2.34" shape="889.16,2566.04 888.51,2564.75 888.56,2563.86"/>
    </edge>
    <edge id=":260606483_9" function="internal">
        <lane id=":260606483_9_0" index="0" disallow="tram rail_urban rail rail_electric ship" speed="7.92" length="8.58" shape="885.14,2562.01 884.47,2560.79 884.51,2557.56 886.12,2553.94"/>
    </edge>
    <edge id=":260606483_10" function="internal">
        <lane id=":260606483_10_0" index="0" disallow="tram rail_urban rail rail_electric ship" speed="3.65" length="2.34" shape="888.56,2563.86 889.30,2563.36 890.74,2563.25"/>
    </edge>
    <edge id=":260606483_3" function="internal">
        <lane id=":260606483_3_0" index="0" disallow="tram rail_urban rail rail_electric ship" speed="6.41" length="9.04" shape="888.83,2555.65 887.81,2557.93 887.79,2559.95 888.77,2561.73 890.74,2563.25"/>
    </edge>
    <edge id=":260606483_4" function="internal">
        <lane id=":260606483_4_0" index="0" disallow="tram rail_urban rail rail_electric ship" speed="8.24" length="14.23" shape="888.83,2555.65 886.30,2558.67 883.42,2560.27 880.21,2560.43 876.65,2559.16"/>
    </edge>
    <edge id=":260606483_5" function="internal">
        <lane id=":260606483_5_0" index="0" disallow="tram rail_urban rail rail_electric ship" speed="3.65" length="4.67" shape="888.83,2555.65 887.51,2556.24 886.62,2556.15 886.16,2555.39 886.12,2553.94"/>
    </edge>
    <edge id=":260606483_6" function="internal">
        <lane id=":260606483_6_0" index="0" disallow="tram rail_urban rail rail_electric ship" speed="6.79" length="9.35" shape="878.15,2556.34 880.46,2557.15 882.56,2557.02 884.45,2555.96 886.12,2553.94"/>
    </edge>
    <edge id=":260606483_7" function="internal">
        <lane id=":260606483_7_0" index="0" disallow="tram rail_urban rail rail_electric ship" speed="13.89" length="14.37" shape="878.15,2556.34 890.74,2563.25"/>
    </edge>
    <edge id=":260606483_8" function="internal">
        <lane id=":260606483_8_0" index="0" disallow="tram rail_urban rail rail_electric ship" speed="3.65" length="2.34" shape="878.15,2556.34 878.83,2557.61 878.81,2558.50"/>
    </edge>
    <edge id=":260606483_11" function="internal">
        <lane id=":260606483_11_0" index="0" disallow="tram rail_urban rail rail_electric ship" speed="3.65" length="2.34" shape="878.81,2558.50 878.08,2559.02 876.65,2559.16"/>
    </edge>
    <edge id=":260606484_0" function="internal">
        <lane id=":260606484_0_0" index="0" disallow="tram rail_urban rail rail_electric ship" speed="13.89" length="11.19" shape="903.22,2574.00 893.49,2568.49"/>
    </edge>
    <edge id=":260606484_1" function="internal">
        <lane id=":260606484_1_0" index="0" disallow="tram rail_urban rail rail_electric ship" speed="3.65" length="2.34" shape="903.22,2574.00 902.57,2572.72 902.62,2571.82"/>
    </edge>
    <edge id=":260606484_6" function="internal">
        <lane id=":260606484_6_0" index="0" disallow="tram rail_urban rail rail_electric ship" speed="3.65" length="2.34" shape="902.62,2571.82 903.36,2571.33 904.80,2571.22"/>
    </edge>
    <edge id=":260606484_2" function="internal">
        <lane id=":260606484_2_0" index="0" disallow="tram rail_urban rail rail_electric ship" speed="13.89" length="11.19" shape="895.07,2565.71 904.80,2571.22"/>
    </edge>
    <edge id=":260606484_3" function="internal">
        <lane id=":260606484_3_0" index="0" disallow="tram rail_urban rail rail_electric ship" speed="3.65" length="2.34" shape="895.07,2565.71 895.72,2566.99 895.67,2567.89"/>
    </edge>
    <edge id=":260606484_7" function="internal">
        <lane id=":260606484_7_0" index="0" disallow="tram rail_urban rail rail_electric ship" speed="3.65" length="2.34" shape="895.67,2567.89 894.93,2568.39 893.49,2568.49"/>
    </edge>
    <edge id=":260606484_4" function="internal">
        <lane id=":260606484_4_0" index="0" disallow="tram rail_urban rail rail_electric ship" speed="6.51" length="9.03" shape="895.60,2576.12 896.50,2573.82 896.45,2571.78 895.44,2570.00 893.49,2568.49"/>
    </edge>
    <edge id=":260606484_5" function="internal">
        <lane id=":260606484_5_0" index="0" disallow="tram rail_urban rail rail_electric ship" speed="7.32" length="11.72" shape="895.60,2576.12 897.80,2572.94 900.06,2571.07 902.40,2570.49 904.80,2571.22"/>
    </edge>
    <edge id=":260606507_0" function="internal">
        <lane id=":260606507_0_0" index="0" disallow="tram rail_urban rail rail_electric ship" speed="22.22" length="6.35" shape="1049.32,2687.53 1047.73,2688.55 1046.60,2689.19 1045.52,2689.90 1044.10,2691.13"/>
    </edge>
    <edge id=":260606507_1" function="internal">
        <lane id=":260606507_1_0" index="0" disallow="tram rail_urban rail rail_electric ship" speed="5.83" length="4.90" shape="1049.32,2687.53 1046.58,2688.89 1044.77,2688.55"/>
    </edge>
    <edge id=":260606507_2" function="internal">
        <lane id=":260606507_2_0" index="0" disallow="tram rail_urban rail rail_electric ship" speed="3.65" length="2.34" shape="1049.32,2687.53 1047.88,2687.56 1047.09,2687.12"/>
    </edge>
    <edge id=":260606507_6" function="internal">
        <lane id=":260606507_6_0" index="0" disallow="tram rail_urban rail rail_electric ship" speed="5.83" length="5.97" shape="1044.77,2688.55 1043.89,2686.50 1043.94,2682.76"/>
    </edge>
    <edge id=":260606507_7" function="internal">
        <lane id=":260606507_7_0" index="0" disallow="tram rail_urban rail rail_electric ship" speed="3.65" length="2.34" shape="1047.09,2687.12 1046.97,2686.24 1047.50,2684.90"/>
    </edge>
    <edge id=":260606507_3" function="internal">
        <lane id=":260606507_3_0" index="0" disallow="tram rail_urban rail rail_electric ship" speed="9.35" length="6.63" shape="1041.91,2688.81 1043.15,2687.38 1043.66,2686.15 1043.80,2684.73 1043.94,2682.76"/>
    </edge>
    <edge id=":260606507_4" function="internal">
        <lane id=":260606507_4_0" index="0" disallow="tram rail_urban rail rail_electric ship" speed="22.22" length="6.85" shape="1041.91,2688.81 1043.43,2687.48 1044.58,2686.70 1045.79,2686.00 1047.50,2684.90"/>
    </edge>
    <edge id=":260606507_5" function="internal">
        <lane id=":260606507_5_0" index="0" disallow="tram rail_urban rail rail_electric ship" speed="3.65" length="2.34" shape="1041.91,2688.81 1043.33,2688.56 1044.17,2688.87"/>
    </edge>
    <edge id=":260606507_8" function="internal">
        <lane id=":260606507_8_0" index="0" disallow="tram rail_urban rail rail_electric ship" speed="3.65" length="2.34" shape="1044.17,2688.87 1044.43,2689.73 1044.10,2691.13"/>
    </edge>
    <edge id=":262105230_0" function="internal">
        <lane id=":262105230_0_0" index="0" disallow="tram rail_urban rail rail_electric bicycle pedestrian ship" speed="6.49" length="9.08" shape="759.75,2494.07 757.41,2493.17 755.36,2493.23 753.60,2494.26 752.12,2496.25"/>
    </edge>
    <edge id=":262105230_1" function="internal">
        <lane id=":262105230_1_0" index="0" disallow="tram rail_urban rail rail_electric ship" speed="3.65" length="4.67" shape="759.75,2494.07 759.09,2492.79 759.13,2491.89 759.87,2491.39 761.31,2491.28"/>
    </edge>
    <edge id=":262105230_2" function="internal">
        <lane id=":262105230_2_0" index="0" disallow="tram rail_urban rail rail_electric ship" speed="6.43" length="9.03" shape="759.30,2483.68 758.33,2485.97 758.34,2488.00 759.34,2489.77 761.31,2491.28"/>
    </edge>
    <edge id=":262105230_3" function="internal">
        <lane id=":262105230_3_0" index="0" disallow="tram rail_urban rail rail_electric bicycle pedestrian ship" speed="27.78" length="14.55" shape="759.30,2483.68 752.12,2496.25"/>
        <lane id=":262105230_3_1" index="1" disallow="tram rail_urban rail rail_electric bicycle pedestrian ship" speed="27.78" length="14.55" shape="756.56,2482.02 749.30,2494.73"/>
    </edge>
    <edge id=":262105561_0" function="internal">
        <lane id=":262105561_0_0" index="0" disallow="tram rail_urban rail rail_electric bicycle pedestrian ship" speed="10.16" length="13.32" shape="816.01,2397.64 813.53,2398.23 811.07,2399.81 808.64,2402.38 806.24,2405.95"/>
    </edge>
    <edge id=":262105561_1" function="internal">
        <lane id=":262105561_1_0" index="0" disallow="tram rail_urban rail rail_electric ship" speed="22.22" length="14.02" shape="816.01,2397.64 812.73,2398.02 809.86,2398.71 806.62,2399.49 802.23,2400.11"/>
    </edge>
    <edge id=":262105561_2" function="internal">
        <lane id=":262105561_2_0" index="0" disallow="tram rail_urban rail rail_electric bicycle pedestrian ship" speed="27.78" length="13.42" shape="812.96,2394.29 806.24,2405.95"/>
        <lane id=":262105561_2_1" index="1" disallow="tram rail_urban rail rail_electric bicycle pedestrian ship" speed="27.78" length="13.42" shape="810.16,2392.73 803.48,2404.33"/>
    </edge>
    <edge id=":262105561_4" function="internal">
        <lane id=":262105561_4_0" index="0" disallow="tram rail_urban rail rail_electric ship" speed="8.85" length="9.58" shape="810.16,2392.73 808.88,2394.36 807.09,2395.60 804.78,2396.45 801.95,2396.92"/>
    </edge>
    <edge id=":262105562_0" function="internal">
        <lane id=":262105562_0_0" index="0" disallow="tram rail_urban rail rail_electric ship" speed="5.70" length="9.21" shape="819.93,2381.74 818.93,2384.30 819.17,2386.14 820.65,2387.26 823.37,2387.66"/>
    </edge>
    <edge id=":262105562_1" function="internal">
        <lane id=":262105562_1_0" index="0" disallow="tram rail_urban rail rail_electric bicycle pedestrian ship" speed="27.78" length="14.15" shape="819.93,2381.74 813.05,2394.11"/>
        <lane id=":262105562_1_1" index="1" disallow="tram rail_urban rail rail_electric bicycle pedestrian ship" speed="27.78" length="14.15" shape="817.14,2380.19 810.26,2392.55"/>
    </edge>
    <edge id=":262105562_3" function="internal">
        <lane id=":262105562_3_0" index="0" disallow="tram rail_urban rail rail_electric ship" speed="22.22" length="16.76" shape="806.61,2387.52 823.37,2387.66"/>
    </edge>
    <edge id=":262105562_4" function="internal">
        <lane id=":262105562_4_0" index="0" disallow="tram rail_urban rail rail_electric bicycle pedestrian ship" speed="5.46" length="8.36" shape="806.61,2387.52 809.25,2387.85 810.74,2388.79 811.07,2390.36 810.26,2392.55"/>
    </edge>
    <edge id=":262293800_0" function="internal">
        <lane id=":262293800_0_0" index="0" allow="bicycle" speed="4.40" length="3.54" width="1.00" shape="939.76,2435.53 938.80,2435.13 937.97,2435.10 937.27,2435.43 936.70,2436.12"/>
    </edge>
    <edge id=":262293800_1" function="internal">
        <lane id=":262293800_1_0" index="0" disallow="tram rail_urban rail rail_electric ship" speed="22.22" length="5.35" shape="940.30,2434.57 935.64,2431.93"/>
    </edge>
    <edge id=":262293800_2" function="internal">
        <lane id=":262293800_2_0" index="0" allow="bicycle" speed="5.61" length="1.72" width="1.00" shape="940.84,2433.61 939.74,2432.61 939.68,2432.38"/>
    </edge>
    <edge id=":262293800_3" function="internal">
        <lane id=":262293800_3_0" index="0" disallow="tram rail_urban rail rail_electric ship" speed="3.65" length="2.34" shape="940.30,2434.57 939.64,2433.29 939.69,2432.39"/>
    </edge>
    <edge id=":262293800_16" function="internal">
        <lane id=":262293800_16_0" index="0" allow="bicycle" speed="5.61" length="5.22" width="1.00" shape="939.68,2432.38 939.39,2431.27 939.81,2429.59 940.98,2427.56"/>
    </edge>
    <edge id=":262293800_17" function="internal">
        <lane id=":262293800_17_0" index="0" disallow="tram rail_urban rail rail_electric ship" speed="3.65" length="2.34" shape="939.69,2432.39 940.43,2431.89 941.86,2431.78"/>
    </edge>
    <edge id=":262293800_4" function="internal">
        <lane id=":262293800_4_0" index="0" disallow="tram rail_urban rail rail_electric ship" speed="3.73" length="3.22" shape="941.79,2428.14 941.39,2428.93 941.35,2429.65 941.69,2430.28 942.40,2430.82"/>
    </edge>
    <edge id=":262293800_5" function="internal">
        <lane id=":262293800_5_0" index="0" allow="bicycle" speed="8.33" length="9.47" width="1.00" shape="941.79,2428.14 940.18,2430.44 939.11,2432.04 938.11,2433.68 936.70,2436.12"/>
    </edge>
    <edge id=":262293800_6" function="internal">
        <lane id=":262293800_6_0" index="0" disallow="tram rail_urban rail rail_electric ship" speed="6.41" length="8.78" shape="941.79,2428.14 939.76,2430.73 937.96,2432.39 936.41,2433.11 935.09,2432.89"/>
    </edge>
    <edge id=":262293800_7" function="internal">
        <lane id=":262293800_7_0" index="0" allow="bicycle" speed="2.04" length="1.46" width="1.00" shape="941.79,2428.14 941.37,2428.30 941.10,2428.26 940.96,2428.01 940.98,2427.56"/>
    </edge>
    <edge id=":262293800_8" function="internal">
        <lane id=":262293800_8_0" index="0" allow="bicycle" speed="4.58" length="3.65" width="1.00" shape="937.77,2428.20 938.71,2428.58 939.55,2428.60 940.31,2428.26 940.98,2427.56"/>
    </edge>
    <edge id=":262293800_9" function="internal">
        <lane id=":262293800_9_0" index="0" disallow="tram rail_urban rail rail_electric ship" speed="22.22" length="5.33" shape="937.23,2429.16 941.86,2431.78"/>
    </edge>
    <edge id=":262293800_10" function="internal">
        <lane id=":262293800_10_0" index="0" allow="bicycle" speed="5.70" length="1.59" width="1.00" shape="936.68,2430.11 937.66,2431.05 937.72,2431.27"/>
    </edge>
    <edge id=":262293800_11" function="internal">
        <lane id=":262293800_11_0" index="0" disallow="tram rail_urban rail rail_electric ship" speed="3.65" length="2.34" shape="937.23,2429.16 937.87,2430.45 937.82,2431.34"/>
    </edge>
    <edge id=":262293800_18" function="internal">
        <lane id=":262293800_18_0" index="0" allow="bicycle" speed="5.70" length="5.12" width="1.00" shape="937.72,2431.27 937.99,2432.36 937.67,2434.05 936.70,2436.12"/>
    </edge>
    <edge id=":262293800_19" function="internal">
        <lane id=":262293800_19_0" index="0" disallow="tram rail_urban rail rail_electric ship" speed="3.65" length="2.34" shape="937.82,2431.34 937.08,2431.84 935.64,2431.93"/>
    </edge>
    <edge id=":262293800_12" function="internal">
        <lane id=":262293800_12_0" index="0" disallow="tram rail_urban rail rail_electric ship" speed="3.86" length="3.23" shape="935.83,2435.62 936.16,2434.80 936.15,2434.07 935.79,2433.43 935.09,2432.89"/>
    </edge>
    <edge id=":262293800_13" function="internal">
        <lane id=":262293800_13_0" index="0" allow="bicycle" speed="8.33" length="9.56" width="1.00" shape="935.83,2435.62 937.25,2433.16 938.27,2431.50 939.35,2429.89 940.98,2427.56"/>
    </edge>
    <edge id=":262293800_14" function="internal">
        <lane id=":262293800_14_0" index="0" disallow="tram rail_urban rail rail_electric ship" speed="6.25" length="8.91" shape="935.83,2435.62 937.63,2432.91 939.32,2431.21 940.91,2430.51 942.40,2430.82"/>
    </edge>
    <edge id=":262293800_15" function="internal">
        <lane id=":262293800_15_0" index="0" allow="bicycle" speed="2.04" length="1.46" width="1.00" shape="935.83,2435.62 936.24,2435.42 936.52,2435.43 936.67,2435.67 936.70,2436.12"/>
    </edge>
    <edge id=":262293802_0" function="internal">
        <lane id=":262293802_0_0" index="0" allow="bicycle" speed="4.48" length="3.57" width="1.00" shape="864.22,2553.82 863.26,2553.45 862.42,2553.44 861.71,2553.79 861.12,2554.49"/>
    </edge>
    <edge id=":262293802_1" function="internal">
        <lane id=":262293802_1_0" index="0" disallow="tram rail_urban rail rail_electric ship" speed="13.89" length="5.30" shape="864.74,2552.85 860.09,2550.30"/>
    </edge>
    <edge id=":262293802_2" function="internal">
        <lane id=":262293802_2_0" index="0" allow="bicycle" speed="5.66" length="1.68" width="1.00" shape="865.25,2551.87 864.19,2550.94 864.12,2550.68"/>
    </edge>
    <edge id=":262293802_3" function="internal">
        <lane id=":262293802_3_0" index="0" disallow="tram rail_urban rail rail_electric ship" speed="3.65" length="2.34" shape="864.74,2552.85 864.05,2551.58 864.07,2550.68"/>
    </edge>
    <edge id=":262293802_16" function="internal">
        <lane id=":262293802_16_0" index="0" allow="bicycle" speed="5.66" length="5.14" width="1.00" shape="864.12,2550.68 863.82,2549.62 864.14,2547.92 865.15,2545.84"/>
    </edge>
    <edge id=":262293802_17" function="internal">
        <lane id=":262293802_17_0" index="0" disallow="tram rail_urban rail rail_electric ship" speed="3.65" length="2.34" shape="864.07,2550.68 864.80,2550.16 866.24,2550.02"/>
    </edge>
    <edge id=":262293802_4" function="internal">
        <lane id=":262293802_4_0" index="0" disallow="tram rail_urban rail rail_electric ship" speed="3.79" length="3.22" shape="866.00,2546.36 865.66,2547.18 865.67,2547.90 866.03,2548.52 866.75,2549.05"/>
    </edge>
    <edge id=":262293802_5" function="internal">
        <lane id=":262293802_5_0" index="0" allow="bicycle" speed="8.33" length="9.49" width="1.00" shape="866.00,2546.36 861.12,2554.49"/>
    </edge>
    <edge id=":262293802_6" function="internal">
        <lane id=":262293802_6_0" index="0" disallow="tram rail_urban rail rail_electric ship" speed="6.25" length="8.79" shape="866.00,2546.36 864.17,2549.06 862.48,2550.78 860.94,2551.51 859.55,2551.26"/>
    </edge>
    <edge id=":262293802_7" function="internal">