<?xml version="1.0" encoding="UTF-8"?>

<!-- generated on Tue Jul 30 09:39:33 2019 by Eclipse SUMO netconvert Version 1.2.0
<configuration xmlns:xsi="http://www.w3.org/2001/XMLSchema-instance" xsi:noNamespaceSchemaLocation="http://sumo.dlr.de/xsd/netconvertConfiguration.xsd">

    <input>
        <osm-files value="map.osm.xml"/>
    </input>

    <output>
        <output-file value="map.net.xml"/>
    </output>

    <projection>
        <proj.utm value="true"/>
    </projection>

</configuration>
-->

<net version="1.1" junctionCornerDetail="5" limitTurnSpeed="5.50" xmlns:xsi="http://www.w3.org/2001/XMLSchema-instance" xsi:noNamespaceSchemaLocation="http://sumo.dlr.de/xsd/net_file.xsd">

    <location netOffset="-553929.77,-4197566.82" convBoundary="0.00,0.00,1481.64,1919.18" origBoundary="-122.386344,37.923350,-122.369377,37.941267" projParameter="+proj=utm +zone=10 +ellps=WGS84 +datum=WGS84 +units=m +no_defs"/>

    <type id="highway.bridleway" priority="1" numLanes="1" speed="2.78" allow="pedestrian" oneway="1" width="2.00"/>
    <type id="highway.bus_guideway" priority="1" numLanes="1" speed="27.78" allow="bus" oneway="1"/>
    <type id="highway.cycleway" priority="1" numLanes="1" speed="8.33" allow="bicycle" oneway="0" width="1.00"/>
    <type id="highway.footway" priority="1" numLanes="1" speed="2.78" allow="pedestrian" oneway="1" width="2.00"/>
    <type id="highway.ford" priority="1" numLanes="1" speed="2.78" allow="army" oneway="0"/>
    <type id="highway.living_street" priority="2" numLanes="1" speed="2.78" disallow="tram rail_urban rail rail_electric ship" oneway="0"/>
    <type id="highway.motorway" priority="14" numLanes="2" speed="39.44" allow="private emergency authority army vip passenger hov taxi bus coach delivery truck trailer motorcycle evehicle custom1 custom2" oneway="1"/>
    <type id="highway.motorway_link" priority="9" numLanes="1" speed="22.22" allow="private emergency authority army vip passenger hov taxi bus coach delivery truck trailer motorcycle evehicle custom1 custom2" oneway="1"/>
    <type id="highway.path" priority="1" numLanes="1" speed="2.78" allow="bicycle pedestrian" oneway="1" width="2.00"/>
    <type id="highway.pedestrian" priority="1" numLanes="1" speed="2.78" allow="pedestrian" oneway="1" width="2.00"/>
    <type id="highway.primary" priority="12" numLanes="2" speed="27.78" disallow="tram rail_urban rail rail_electric ship" oneway="0"/>
    <type id="highway.primary_link" priority="7" numLanes="1" speed="22.22" disallow="tram rail_urban rail rail_electric ship" oneway="0"/>
    <type id="highway.raceway" priority="15" numLanes="2" speed="83.33" allow="vip" oneway="0"/>
    <type id="highway.residential" priority="3" numLanes="1" speed="13.89" disallow="tram rail_urban rail rail_electric ship" oneway="0"/>
    <type id="highway.secondary" priority="11" numLanes="2" speed="27.78" disallow="tram rail_urban rail rail_electric ship" oneway="0"/>
    <type id="highway.secondary_link" priority="6" numLanes="1" speed="22.22" disallow="tram rail_urban rail rail_electric ship" oneway="0"/>
    <type id="highway.service" priority="1" numLanes="1" speed="5.56" allow="delivery bicycle pedestrian" oneway="0"/>
    <type id="highway.stairs" priority="1" numLanes="1" speed="1.39" allow="pedestrian" oneway="1" width="2.00"/>
    <type id="highway.step" priority="1" numLanes="1" speed="1.39" allow="pedestrian" oneway="1" width="2.00"/>
    <type id="highway.steps" priority="1" numLanes="1" speed="1.39" allow="pedestrian" oneway="1" width="2.00"/>
    <type id="highway.tertiary" priority="10" numLanes="1" speed="22.22" disallow="tram rail_urban rail rail_electric ship" oneway="0"/>
    <type id="highway.tertiary_link" priority="5" numLanes="1" speed="22.22" disallow="tram rail_urban rail rail_electric ship" oneway="0"/>
    <type id="highway.track" priority="1" numLanes="1" speed="5.56" disallow="tram rail_urban rail rail_electric ship" oneway="0"/>
    <type id="highway.trunk" priority="13" numLanes="2" speed="27.78" disallow="tram rail_urban rail rail_electric bicycle pedestrian ship" oneway="0"/>
    <type id="highway.trunk_link" priority="8" numLanes="1" speed="22.22" disallow="tram rail_urban rail rail_electric bicycle pedestrian ship" oneway="0"/>
    <type id="highway.unclassified" priority="4" numLanes="1" speed="13.89" disallow="tram rail_urban rail rail_electric ship" oneway="0"/>
    <type id="highway.unsurfaced" priority="1" numLanes="1" speed="8.33" disallow="tram rail_urban rail rail_electric ship" oneway="0"/>
    <type id="railway.light_rail" priority="19" numLanes="1" speed="27.78" allow="rail_urban" oneway="1"/>
    <type id="railway.preserved" priority="16" numLanes="1" speed="27.78" allow="rail" oneway="1"/>
    <type id="railway.rail" priority="20" numLanes="1" speed="83.33" allow="rail rail_electric" oneway="1"/>
    <type id="railway.subway" priority="18" numLanes="1" speed="27.78" allow="rail_urban" oneway="1"/>
    <type id="railway.tram" priority="17" numLanes="1" speed="13.89" allow="tram" oneway="1"/>

    <edge id=":1359957017_0" function="internal">
        <lane id=":1359957017_0_0" index="0" allow="rail rail_electric" speed="83.33" length="2.84" shape="287.93,391.66 288.38,392.37 288.71,392.85 289.05,393.31 289.56,393.98"/>
    </edge>
    <edge id=":249055793_0" function="internal">
        <lane id=":249055793_0_0" index="0" allow="private emergency authority army vip passenger hov taxi bus coach delivery truck trailer motorcycle evehicle custom1 custom2" speed="29.06" length="0.39" shape="494.95,394.10 494.70,394.17"/>
        <lane id=":249055793_0_1" index="1" allow="private emergency authority army vip passenger hov taxi bus coach delivery truck trailer motorcycle evehicle custom1 custom2" speed="29.06" length="0.39" shape="494.13,391.01 493.76,391.12"/>
        <lane id=":249055793_0_2" index="2" allow="private emergency authority army vip passenger hov taxi bus coach delivery truck trailer motorcycle evehicle custom1 custom2" speed="29.06" length="0.39" shape="493.31,387.91 492.82,388.06"/>
    </edge>
    <edge id=":249059870_0" function="internal">
        <lane id=":249059870_0_0" index="0" allow="private emergency authority army vip passenger hov taxi bus coach delivery truck trailer motorcycle evehicle custom1 custom2" speed="29.06" length="0.25" shape="478.94,371.82 479.34,371.71"/>
        <lane id=":249059870_0_1" index="1" allow="private emergency authority army vip passenger hov taxi bus coach delivery truck trailer motorcycle evehicle custom1 custom2" speed="29.06" length="0.25" shape="479.87,374.88 480.11,374.81"/>
        <lane id=":249059870_0_2" index="2" allow="private emergency authority army vip passenger hov taxi bus coach delivery truck trailer motorcycle evehicle custom1 custom2" speed="29.06" length="0.25" shape="480.80,377.94 480.88,377.92"/>
    </edge>
    <edge id=":249059994_0" function="internal">
        <lane id=":249059994_0_0" index="0" allow="private emergency authority army vip passenger hov taxi bus coach delivery truck trailer motorcycle evehicle custom1 custom2" speed="22.22" length="0.24" shape="462.52,352.76 462.75,352.68"/>
    </edge>
    <edge id=":249060026_0" function="internal">
        <lane id=":249060026_0_0" index="0" allow="private emergency authority army vip passenger hov taxi bus coach delivery truck trailer motorcycle evehicle custom1 custom2" speed="22.22" length="14.58" shape="518.35,414.55 515.04,415.15 512.02,415.71 508.61,416.49 504.15,417.78"/>
    </edge>
    <edge id=":249060026_1" function="internal">
        <lane id=":249060026_1_0" index="0" allow="private emergency authority army vip passenger hov taxi bus coach delivery truck trailer motorcycle evehicle custom1 custom2" speed="22.22" length="14.66" shape="517.34,410.88 503.20,414.73"/>
    </edge>
    <edge id=":249060033_0" function="internal">
        <lane id=":249060033_0_0" index="0" allow="private emergency authority army vip passenger hov taxi bus coach delivery truck trailer motorcycle evehicle custom1 custom2" speed="22.22" length="32.65" shape="294.39,487.75 287.22,491.01 280.03,495.33 273.01,500.03 266.39,504.42"/>
    </edge>
    <edge id=":249060033_1" function="internal">
        <lane id=":249060033_1_0" index="0" allow="private emergency authority army vip passenger hov taxi bus coach delivery truck trailer motorcycle evehicle custom1 custom2" speed="22.22" length="33.37" shape="293.32,484.73 286.06,488.04 278.64,492.47 271.40,497.28 264.68,501.72"/>
    </edge>
    <edge id=":249060033_2" function="internal">
        <lane id=":249060033_2_0" index="0" allow="private emergency authority army vip passenger hov taxi bus coach delivery truck trailer motorcycle evehicle custom1 custom2" speed="22.22" length="33.28" shape="293.32,484.73 262.89,498.21"/>
    </edge>
    <edge id=":249060100_0" function="internal">
        <lane id=":249060100_0_0" index="0" allow="delivery bicycle pedestrian" speed="3.65" length="4.67" shape="676.95,609.10 676.36,610.42 675.64,610.94 674.78,610.68 673.80,609.63"/>
    </edge>
    <edge id=":249069080_0" function="internal">
        <lane id=":249069080_0_0" index="0" allow="private emergency authority army vip passenger hov taxi bus coach delivery truck trailer motorcycle evehicle custom1 custom2" speed="22.22" length="0.23" shape="238.75,521.82 238.65,521.88"/>
        <lane id=":249069080_0_1" index="1" allow="private emergency authority army vip passenger hov taxi bus coach delivery truck trailer motorcycle evehicle custom1 custom2" speed="22.22" length="0.23" shape="237.04,519.11 236.76,519.30"/>
    </edge>
    <edge id=":249069091_0" function="internal">
        <lane id=":249069091_0_0" index="0" allow="private emergency authority army vip passenger hov taxi bus coach delivery truck trailer motorcycle evehicle custom1 custom2" speed="22.22" length="0.30" shape="234.05,436.40 234.32,436.27"/>
    </edge>
    <edge id=":249069097_0" function="internal">
        <lane id=":249069097_0_0" index="0" allow="private emergency authority army vip passenger hov taxi bus coach delivery truck trailer motorcycle evehicle custom1 custom2" speed="22.22" length="0.28" shape="447.98,343.93 448.24,343.84"/>
    </edge>
    <edge id=":249069107_0" function="internal">
        <lane id=":249069107_0_0" index="0" allow="private emergency authority army vip passenger hov taxi bus coach delivery truck trailer motorcycle evehicle custom1 custom2" speed="22.22" length="0.23" shape="230.82,510.77 230.61,510.85"/>
    </edge>
    <edge id=":3036918364_0" function="internal">
        <lane id=":3036918364_0_0" index="0" allow="delivery bicycle pedestrian" speed="3.65" length="4.67" shape="538.00,292.09 539.31,292.68 539.83,293.41 539.57,294.26 538.51,295.24"/>
    </edge>
    <edge id=":3163789127_0" function="internal">
        <lane id=":3163789127_0_0" index="0" allow="rail rail_electric" speed="83.33" length="2.94" shape="267.13,359.72 266.09,356.98"/>
    </edge>
    <edge id=":3364782158_0" function="internal">
        <lane id=":3364782158_0_0" index="0" allow="rail rail_electric" speed="83.33" length="2.87" shape="297.34,443.35 296.40,440.64"/>
    </edge>
    <edge id=":3958786308_0" function="internal">
        <lane id=":3958786308_0_0" index="0" allow="private emergency authority army vip passenger hov taxi bus coach delivery truck trailer motorcycle evehicle custom1 custom2" speed="22.22" length="7.97" shape="490.78,343.33 492.93,342.36 494.26,341.36 495.61,340.42 497.81,339.59"/>
        <lane id=":3958786308_0_1" index="1" allow="private emergency authority army vip passenger hov taxi bus coach delivery truck trailer motorcycle evehicle custom1 custom2" speed="22.22" length="7.97" shape="490.78,343.33 493.04,342.85 494.66,342.91 496.30,343.03 498.61,342.69"/>
    </edge>
    <edge id=":3958786312_0" function="internal">
        <lane id=":3958786312_0_0" index="0" allow="private emergency authority army vip passenger hov taxi bus coach delivery truck trailer motorcycle evehicle custom1 custom2" speed="22.22" length="8.21" shape="588.80,406.99 586.41,407.32 584.83,407.92 583.24,408.52 580.86,408.86"/>
    </edge>
    <edge id=":415837570_0" function="internal">
        <lane id=":415837570_0_0" index="0" allow="rail rail_electric" speed="83.33" length="3.02" shape="374.36,484.54 376.51,486.66"/>
    </edge>
    <edge id=":415837571_0" function="internal">
        <lane id=":415837571_0_0" index="0" allow="rail rail_electric" speed="83.33" length="2.99" shape="412.86,521.81 415.00,523.89"/>
    </edge>
    <edge id=":415837571_1" function="internal">
        <lane id=":415837571_1_0" index="0" allow="rail rail_electric" speed="83.33" length="2.99" shape="412.86,521.81 413.50,522.43 413.92,522.86 414.33,523.31 414.91,523.99"/>
    </edge>
    <edge id=":415837572_0" function="internal">
        <lane id=":415837572_0_0" index="0" allow="rail rail_electric" speed="83.33" length="46.51" shape="437.40,545.73 469.83,579.07"/>
    </edge>
    <edge id=":415837572_1" function="internal">
        <lane id=":415837572_1_0" index="0" allow="rail rail_electric" speed="83.33" length="46.59" shape="437.40,545.73 443.16,552.21 452.59,563.37 461.93,574.61 467.43,581.34"/>
    </edge>
    <edge id=":4167589496_0" function="internal">
        <lane id=":4167589496_0_0" index="0" disallow="tram rail_urban rail rail_electric ship" speed="3.65" length="4.67" shape="273.18,163.52 273.21,162.08 273.67,161.31 274.56,161.22 275.88,161.81"/>
    </edge>
    <edge id=":4169729065_0" function="internal">
        <lane id=":4169729065_0_0" index="0" disallow="tram rail_urban rail rail_electric ship" speed="3.65" length="4.67" shape="622.07,672.19 622.05,673.63 621.59,674.40 620.71,674.50 619.38,673.92"/>
    </edge>
    <edge id=":441291361_0" function="internal">
        <lane id=":441291361_0_0" index="0" allow="rail rail_electric" speed="83.33" length="2.97" shape="1294.61,1675.42 1292.76,1673.10"/>
    </edge>
    <edge id=":441291361_1" function="internal">
        <lane id=":441291361_1_0" index="0" allow="rail rail_electric" speed="83.33" length="2.97" shape="1294.61,1675.42 1294.06,1674.73 1293.69,1674.25 1293.35,1673.75 1292.86,1673.02"/>
    </edge>
    <edge id=":441291371_0" function="internal">
        <lane id=":441291371_0_0" index="0" allow="rail rail_electric" speed="83.33" length="54.77" shape="336.43,465.66 306.37,419.88"/>
    </edge>
    <edge id=":441291371_1" function="internal">
        <lane id=":441291371_1_0" index="0" allow="rail rail_electric" speed="83.33" length="54.78" shape="339.17,463.76 333.12,455.84 322.63,441.92 312.22,427.95 306.37,419.88"/>
    </edge>
    <edge id=":441291401_0" function="internal">
        <lane id=":441291401_0_0" index="0" allow="rail rail_electric" speed="83.33" length="2.83" shape="1268.15,1633.16 1266.76,1630.70"/>
    </edge>
    <edge id=":441291401_1" function="internal">
        <lane id=":441291401_1_0" index="0" allow="rail rail_electric" speed="2.77" length="1.46" shape="1266.65,1630.78 1266.97,1631.22 1267.09,1631.35 1267.02,1631.18 1266.76,1630.70"/>
    </edge>
    <edge id=":441295704_0" function="internal">
        <lane id=":441295704_0_0" index="0" allow="rail rail_electric" speed="83.33" length="2.57" shape="628.03,1057.92 627.08,1055.53"/>
    </edge>
    <edge id=":441296867_0" function="internal">
        <lane id=":441296867_0_0" index="0" allow="rail rail_electric" speed="83.33" length="36.12" shape="410.14,564.56 406.41,558.57 400.50,549.27 394.48,540.05 390.44,534.29"/>
    </edge>
    <edge id=":441296867_1" function="internal">
        <lane id=":441296867_1_0" index="0" allow="rail rail_electric" speed="83.33" length="36.12" shape="412.89,562.58 390.44,534.29"/>
    </edge>
    <edge id=":441366340_0" function="internal">
        <lane id=":441366340_0_0" index="0" allow="rail rail_electric" speed="83.33" length="29.52" shape="371.68,516.64 368.49,511.53 363.87,504.11 359.18,496.73 355.78,491.77"/>
    </edge>
    <edge id=":441366340_1" function="internal">
        <lane id=":441366340_1_0" index="0" allow="rail rail_electric" speed="83.33" length="29.52" shape="374.41,514.66 355.78,491.77"/>
    </edge>
    <edge id=":441368471_0" function="internal">
        <lane id=":441368471_0_0" index="0" allow="rail rail_electric" speed="83.33" length="2.89" shape="1247.52,1597.01 1246.11,1594.49"/>
    </edge>
    <edge id=":441368471_1" function="internal">
        <lane id=":441368471_1_0" index="0" allow="rail rail_electric" speed="2.78" length="1.47" shape="1245.99,1594.57 1246.31,1595.02 1246.43,1595.15 1246.36,1594.98 1246.11,1594.49"/>
    </edge>
    <edge id=":4621378083_0" function="internal">
        <lane id=":4621378083_0_0" index="0" disallow="tram rail_urban rail rail_electric ship" speed="22.22" length="9.40" shape="375.80,314.96 370.50,307.19"/>
    </edge>
    <edge id=":4621378083_1" function="internal">
        <lane id=":4621378083_1_0" index="0" allow="delivery bicycle pedestrian" speed="6.94" length="5.03" shape="375.80,314.96 374.60,312.50 374.48,310.21"/>
    </edge>
    <edge id=":4621378083_2" function="internal">
        <lane id=":4621378083_2_0" index="0" disallow="tram rail_urban rail rail_electric ship" speed="3.65" length="2.34" shape="375.80,314.96 375.78,313.51 376.22,312.73"/>
    </edge>
    <edge id=":4621378083_9" function="internal">
        <lane id=":4621378083_9_0" index="0" allow="delivery bicycle pedestrian" speed="6.94" length="5.15" shape="374.48,310.21 375.44,308.09 377.47,306.13"/>
    </edge>
    <edge id=":4621378083_10" function="internal">
        <lane id=":4621378083_10_0" index="0" disallow="tram rail_urban rail rail_electric ship" speed="3.65" length="2.34" shape="376.22,312.73 377.11,312.61 378.44,313.15"/>
    </edge>
    <edge id=":4621378083_3" function="internal">
        <lane id=":4621378083_3_0" index="0" disallow="tram rail_urban rail rail_electric ship" speed="5.15" length="5.13" shape="379.35,308.72 378.31,309.71 377.81,310.78 377.86,311.93 378.44,313.15"/>
    </edge>
    <edge id=":4621378083_4" function="internal">
        <lane id=":4621378083_4_0" index="0" disallow="tram rail_urban rail rail_electric ship" speed="6.84" length="10.32" shape="379.35,308.72 376.84,310.05 374.53,310.24 372.42,309.28 370.50,307.19"/>
    </edge>
    <edge id=":4621378083_5" function="internal">
        <lane id=":4621378083_5_0" index="0" allow="delivery bicycle pedestrian" speed="3.65" length="4.67" shape="379.35,308.72 377.91,308.78 377.12,308.37 376.97,307.48 377.47,306.13"/>
    </edge>
    <edge id=":4621378083_6" function="internal">
        <lane id=":4621378083_6_0" index="0" allow="delivery bicycle pedestrian" speed="5.01" length="5.04" shape="373.15,305.38 374.08,306.41 375.11,306.87 376.24,306.78 377.47,306.13"/>
    </edge>
    <edge id=":4621378083_7" function="internal">
        <lane id=":4621378083_7_0" index="0" disallow="tram rail_urban rail rail_electric ship" speed="22.22" length="9.40" shape="373.15,305.38 378.44,313.15"/>
    </edge>
    <edge id=":4621378083_8" function="internal">
        <lane id=":4621378083_8_0" index="0" disallow="tram rail_urban rail rail_electric ship" speed="3.65" length="2.34" shape="373.15,305.38 373.16,306.83 372.72,307.61"/>
    </edge>
    <edge id=":4621378083_11" function="internal">
        <lane id=":4621378083_11_0" index="0" disallow="tram rail_urban rail rail_electric ship" speed="3.65" length="2.34" shape="372.72,307.61 371.84,307.73 370.50,307.19"/>
    </edge>
    <edge id=":4684669791_0" function="internal">
        <lane id=":4684669791_0_0" index="0" disallow="tram rail_urban rail rail_electric ship" speed="22.22" length="9.47" shape="483.73,473.25 478.40,465.43"/>
    </edge>
    <edge id=":4684669791_1" function="internal">
        <lane id=":4684669791_1_0" index="0" allow="delivery bicycle pedestrian" speed="6.76" length="5.19" shape="483.73,473.25 482.39,470.51 482.34,468.38"/>
    </edge>
    <edge id=":4684669791_2" function="internal">
        <lane id=":4684669791_2_0" index="0" disallow="tram rail_urban rail rail_electric ship" speed="3.65" length="2.34" shape="483.73,473.25 483.72,471.81 484.15,471.03"/>
    </edge>
    <edge id=":4684669791_9" function="internal">
        <lane id=":4684669791_9_0" index="0" allow="delivery bicycle pedestrian" speed="6.76" length="5.73" shape="482.34,468.38 482.34,468.11 483.58,466.05 486.11,464.34"/>
    </edge>
    <edge id=":4684669791_10" function="internal">
        <lane id=":4684669791_10_0" index="0" disallow="tram rail_urban rail rail_electric ship" speed="3.65" length="2.34" shape="484.15,471.03 485.04,470.91 486.38,471.45"/>
    </edge>
    <edge id=":4684669791_3" function="internal">
        <lane id=":4684669791_3_0" index="0" disallow="tram rail_urban rail rail_electric ship" speed="4.90" length="5.18" shape="487.51,467.22 486.30,468.03 485.71,469.01 485.74,470.15 486.38,471.45"/>
    </edge>
    <edge id=":4684669791_4" function="internal">
        <lane id=":4684669791_4_0" index="0" disallow="tram rail_urban rail rail_electric ship" speed="7.28" length="10.26" shape="487.51,467.22 484.71,468.18 482.26,468.21 480.16,467.29 478.40,465.43"/>
    </edge>
    <edge id=":4684669791_5" function="internal">
        <lane id=":4684669791_5_0" index="0" allow="delivery bicycle pedestrian" speed="3.65" length="4.67" shape="487.51,467.22 486.08,467.02 485.37,466.48 485.38,465.58 486.11,464.34"/>
    </edge>
    <edge id=":4684669791_6" function="internal">
        <lane id=":4684669791_6_0" index="0" allow="delivery bicycle pedestrian" speed="5.58" length="5.64" shape="481.04,463.63 481.97,464.56 483.12,465.00 484.50,464.92 486.11,464.34"/>
    </edge>
    <edge id=":4684669791_7" function="internal">
        <lane id=":4684669791_7_0" index="0" disallow="tram rail_urban rail rail_electric ship" speed="22.22" length="9.47" shape="481.04,463.63 486.38,471.45"/>
    </edge>
    <edge id=":4684669791_8" function="internal">
        <lane id=":4684669791_8_0" index="0" disallow="tram rail_urban rail rail_electric ship" speed="3.65" length="2.34" shape="481.04,463.63 481.06,465.07 480.62,465.85"/>
    </edge>
    <edge id=":4684669791_11" function="internal">
        <lane id=":4684669791_11_0" index="0" disallow="tram rail_urban rail rail_electric ship" speed="3.65" length="2.34" shape="480.62,465.85 479.74,465.97 478.40,465.43"/>
    </edge>
    <edge id=":4684669797_0" function="internal">
        <lane id=":4684669797_0_0" index="0" allow="delivery bicycle pedestrian" speed="4.92" length="5.16" shape="504.54,458.96 503.34,459.76 502.75,460.74 502.76,461.88 503.36,463.18"/>
    </edge>
    <edge id=":4684669797_1" function="internal">
        <lane id=":4684669797_1_0" index="0" allow="delivery bicycle pedestrian" speed="5.56" length="6.23" shape="504.54,458.96 498.93,461.67"/>
    </edge>
    <edge id=":4684669797_2" function="internal">
        <lane id=":4684669797_2_0" index="0" allow="delivery bicycle pedestrian" speed="3.65" length="4.67" shape="504.54,458.96 503.11,458.76 502.40,458.22 502.41,457.32 503.14,456.08"/>
    </edge>
    <edge id=":4684669797_3" function="internal">
        <lane id=":4684669797_3_0" index="0" allow="delivery bicycle pedestrian" speed="5.56" length="6.23" shape="497.54,458.79 503.14,456.08"/>
    </edge>
    <edge id=":4684669797_4" function="internal">
        <lane id=":4684669797_4_0" index="0" allow="delivery bicycle pedestrian" speed="5.56" length="7.79" shape="497.54,458.79 498.75,458.66 500.12,459.34 501.66,460.85 503.36,463.18"/>
    </edge>
    <edge id=":4684669797_5" function="internal">
        <lane id=":4684669797_5_0" index="0" allow="delivery bicycle pedestrian" speed="3.65" length="4.67" shape="497.54,458.79 498.97,458.99 499.68,459.54 499.66,460.43 498.93,461.67"/>
    </edge>
    <edge id=":4684669799_0" function="internal">
        <lane id=":4684669799_0_0" index="0" disallow="tram rail_urban rail rail_electric ship" speed="22.22" length="6.21" shape="532.49,544.76 528.99,539.63"/>
    </edge>
    <edge id=":4684669799_1" function="internal">
        <lane id=":4684669799_1_0" index="0" disallow="tram rail_urban rail rail_electric ship" speed="3.65" length="2.34" shape="532.49,544.76 532.47,543.31 532.91,542.53"/>
    </edge>
    <edge id=":4684669799_6" function="internal">
        <lane id=":4684669799_6_0" index="0" disallow="tram rail_urban rail rail_electric ship" speed="3.65" length="2.34" shape="532.91,542.53 533.79,542.41 535.13,542.95"/>
    </edge>
    <edge id=":4684669799_2" function="internal">
        <lane id=":4684669799_2_0" index="0" disallow="tram rail_urban rail rail_electric ship" speed="5.16" length="5.08" shape="535.97,538.53 534.96,539.53 534.49,540.60 534.55,541.74 535.13,542.95"/>
    </edge>
    <edge id=":4684669799_3" function="internal">
        <lane id=":4684669799_3_0" index="0" disallow="tram rail_urban rail rail_electric ship" speed="6.03" length="7.91" shape="535.97,538.53 533.63,540.05 531.68,540.74 530.14,540.60 528.99,539.63"/>
    </edge>
    <edge id=":4684669799_4" function="internal">
        <lane id=":4684669799_4_0" index="0" disallow="tram rail_urban rail rail_electric ship" speed="22.22" length="6.20" shape="531.64,537.83 535.13,542.95"/>
    </edge>
    <edge id=":4684669799_5" function="internal">
        <lane id=":4684669799_5_0" index="0" disallow="tram rail_urban rail rail_electric ship" speed="3.65" length="2.34" shape="531.64,537.83 531.65,539.27 531.22,540.05"/>
    </edge>
    <edge id=":4684669799_7" function="internal">
        <lane id=":4684669799_7_0" index="0" disallow="tram rail_urban rail rail_electric ship" speed="3.65" length="2.34" shape="531.22,540.05 530.33,540.17 528.99,539.63"/>
    </edge>
    <edge id=":4931639157_0" function="internal">
        <lane id=":4931639157_0_0" index="0" allow="delivery bicycle pedestrian" speed="3.65" length="4.67" shape="426.15,266.39 427.35,265.58 428.24,265.52 428.83,266.20 429.11,267.61"/>
    </edge>
    <edge id=":4931639158_0" function="internal">
        <lane id=":4931639158_0_0" index="0" allow="delivery bicycle pedestrian" speed="3.65" length="4.67" shape="378.52,281.59 378.50,280.15 378.93,279.37 379.82,279.24 381.16,279.78"/>
    </edge>
    <edge id=":4931639163_0" function="internal">
        <lane id=":4931639163_0_0" index="0" allow="delivery bicycle pedestrian" speed="5.36" length="5.40" shape="393.61,302.51 392.48,301.50 391.30,301.05 390.09,301.15 388.84,301.80"/>
    </edge>
    <edge id=":4931639163_1" function="internal">
        <lane id=":4931639163_1_0" index="0" allow="delivery bicycle pedestrian" speed="5.56" length="9.94" shape="393.61,302.51 391.69,300.28 390.41,298.71 389.21,297.09 387.53,294.66"/>
    </edge>
    <edge id=":4931639163_2" function="internal">
        <lane id=":4931639163_2_0" index="0" allow="delivery bicycle pedestrian" speed="5.56" length="10.44" shape="393.61,302.51 392.06,300.09 391.69,297.79 392.50,295.59 394.50,293.51"/>
    </edge>
    <edge id=":4931639163_3" function="internal">
        <lane id=":4931639163_3_0" index="0" allow="delivery bicycle pedestrian" speed="3.65" length="4.67" shape="393.61,302.51 393.43,301.08 393.77,300.26 394.64,300.03 396.03,300.41"/>
    </edge>
    <edge id=":4931639163_4" function="internal">
        <lane id=":4931639163_4_0" index="0" allow="delivery bicycle pedestrian" speed="4.99" length="5.08" shape="396.47,296.03 395.49,297.05 395.10,298.12 395.27,299.24 396.03,300.41"/>
    </edge>
    <edge id=":4931639163_5" function="internal">
        <lane id=":4931639163_5_0" index="0" allow="delivery bicycle pedestrian" speed="5.56" length="9.56" shape="396.47,296.03 388.84,301.80"/>
    </edge>
    <edge id=":4931639163_6" function="internal">
        <lane id=":4931639163_6_0" index="0" allow="delivery bicycle pedestrian" speed="5.56" length="10.46" shape="396.47,296.03 393.96,297.47 391.64,297.72 389.49,296.78 387.53,294.66"/>
    </edge>
    <edge id=":4931639163_7" function="internal">
        <lane id=":4931639163_7_0" index="0" allow="delivery bicycle pedestrian" speed="3.65" length="4.67" shape="396.47,296.03 395.03,296.14 394.22,295.76 394.05,294.88 394.50,293.51"/>
    </edge>
    <edge id=":4931639163_8" function="internal">
        <lane id=":4931639163_8_0" index="0" allow="delivery bicycle pedestrian" speed="4.98" length="5.07" shape="390.17,292.85 391.12,293.87 392.16,294.33 393.29,294.21 394.50,293.51"/>
    </edge>
    <edge id=":4931639163_9" function="internal">
        <lane id=":4931639163_9_0" index="0" allow="delivery bicycle pedestrian" speed="5.56" length="9.58" shape="390.17,292.85 391.79,295.18 392.94,296.75 394.17,298.26 396.03,300.41"/>
    </edge>
    <edge id=":4931639163_10" function="internal">
        <lane id=":4931639163_10_0" index="0" allow="delivery bicycle pedestrian" speed="5.56" length="10.26" shape="390.17,292.85 391.46,295.40 391.67,297.74 390.79,299.87 388.84,301.80"/>
    </edge>
    <edge id=":4931639163_11" function="internal">
        <lane id=":4931639163_11_0" index="0" allow="delivery bicycle pedestrian" speed="3.65" length="4.67" shape="390.17,292.85 390.19,294.29 389.76,295.07 388.87,295.20 387.53,294.66"/>
    </edge>
    <edge id=":4931639163_12" function="internal">
        <lane id=":4931639163_12_0" index="0" allow="delivery bicycle pedestrian" speed="5.17" length="5.20" shape="386.95,299.21 387.92,298.25 388.33,297.17 388.21,295.98 387.53,294.66"/>
    </edge>
    <edge id=":4931639163_13" function="internal">
        <lane id=":4931639163_13_0" index="0" allow="delivery bicycle pedestrian" speed="5.56" length="9.46" shape="386.95,299.21 394.50,293.51"/>
    </edge>
    <edge id=":4931639163_14" function="internal">
        <lane id=":4931639163_14_0" index="0" allow="delivery bicycle pedestrian" speed="5.56" length="10.25" shape="386.95,299.21 389.37,297.94 391.68,297.72 393.90,298.54 396.03,300.41"/>
    </edge>
    <edge id=":4931639163_15" function="internal">